
     RDKit          3D

 17 17  0  0  0  0  0  0  0  0999 V2000
   -1.2018   -0.8600    0.3643 C   0  0  0  0  0  0  0  0  0  0  0  0
    0.1533   -0.9841   -0.2656 C   0  0  0  0  0  0  0  0  0  0  0  0
   -1.8262    0.4847    0.1153 C   0  0  0  0  0  0  0  0  0  0  0  0
    2.4302    0.0872   -0.0161 C   0  0  0  0  0  0  0  0  0  0  0  0
    0.9551    0.2252    0.1071 C   0  0  0  0  0  0  0  0  0  0  0  0
   -0.8543    1.5391   -0.2251 C   0  0  0  0  0  0  0  0  0  0  0  0
    0.4283    1.3575   -0.3010 C   0  0  0  0  0  0  0  0  0  0  0  0
   -1.8314   -1.6973   -0.0348 H   0  0  0  0  0  0  0  0  0  0  0  0
   -1.1473   -1.0772    1.4614 H   0  0  0  0  0  0  0  0  0  0  0  0
    0.0120   -0.9790   -1.3627 H   0  0  0  0  0  0  0  0  0  0  0  0
    0.6564   -1.8932    0.0995 H   0  0  0  0  0  0  0  0  0  0  0  0
   -2.6086    0.3411   -0.6725 H   0  0  0  0  0  0  0  0  0  0  0  0
   -2.4038    0.7721    1.0281 H   0  0  0  0  0  0  0  0  0  0  0  0
    2.9884    0.6601    0.7352 H   0  0  0  0  0  0  0  0  0  0  0  0
    2.6984    0.4309   -1.0407 H   0  0  0  0  0  0  0  0  0  0  0  0
    2.7455   -0.9748    0.0904 H   0  0  0  0  0  0  0  0  0  0  0  0
   -1.1940    2.5676   -0.0828 H   0  0  0  0  0  0  0  0  0  0  0  0
  1  9  1  0
  1  8  1  0
  1  2  1  0
  1  3  1  0
  2  5  1  0
  2 11  1  0
  2 10  1  0
  3  6  1  0
  3 12  1  0
  3 13  1  0
  4  5  1  0
  4 16  1  0
  4 15  1  0
  4 14  1  0
  5  7  2  0
  6  7  2  0
  6 17  1  0
M  END
