
     RDKit          3D

 19 19  0  0  0  0  0  0  0  0999 V2000
   -1.2534    0.0632   -0.4893 C   0  0  0  0  0  0  0  0  0  0  0  0
   -1.7454   -1.0600    0.2605 C   0  0  0  0  0  0  0  0  0  0  0  0
    1.4862   -0.0324   -0.8148 C   0  0  0  0  0  0  0  0  0  0  0  0
   -1.4206    1.4182    0.2066 C   0  0  0  0  0  0  0  0  0  0  0  0
    2.3923    0.2574    0.3752 C   0  0  0  0  0  0  0  0  0  0  0  0
    0.1346   -0.4787   -0.3531 C   0  0  0  0  0  0  0  0  0  0  0  0
   -0.3461   -1.5739    0.3668 C   0  0  0  0  0  0  0  0  0  0  0  0
   -1.5936    0.0751   -1.5490 H   0  0  0  0  0  0  0  0  0  0  0  0
    1.9377   -0.8274   -1.4451 H   0  0  0  0  0  0  0  0  0  0  0  0
    1.3771    0.8881   -1.4266 H   0  0  0  0  0  0  0  0  0  0  0  0
   -2.3858   -1.7431   -0.3398 H   0  0  0  0  0  0  0  0  0  0  0  0
   -2.1689   -0.8187    1.2612 H   0  0  0  0  0  0  0  0  0  0  0  0
   -1.0179    1.3951    1.2432 H   0  0  0  0  0  0  0  0  0  0  0  0
   -2.4969    1.6888    0.2431 H   0  0  0  0  0  0  0  0  0  0  0  0
   -0.8790    2.1995   -0.3672 H   0  0  0  0  0  0  0  0  0  0  0  0
    2.5335   -0.6602    0.9855 H   0  0  0  0  0  0  0  0  0  0  0  0
    3.3844    0.5989    0.0122 H   0  0  0  0  0  0  0  0  0  0  0  0
    1.9505    1.0559    1.0094 H   0  0  0  0  0  0  0  0  0  0  0  0
    0.1115   -2.4459    0.8213 H   0  0  0  0  0  0  0  0  0  0  0  0
  1  4  1  0
  1  2  1  0
  1  8  1  0
  1  6  1  0
  2  7  1  0
  2 11  1  0
  2 12  1  0
  3  9  1  0
  3 10  1  0
  3  5  1  0
  3  6  1  0
  4 14  1  0
  4 13  1  0
  4 15  1  0
  5 17  1  0
  5 18  1  0
  5 16  1  0
  6  7  2  0
  7 19  1  0
M  END
