
     RDKit          3D

 16 16  0  0  0  0  0  0  0  0999 V2000
   -1.4072    0.4868    0.5524 C   0  0  0  0  0  0  0  0  0  0  0  0
   -0.2209    1.1784   -0.0899 C   0  0  0  0  0  0  0  0  0  0  0  0
   -1.4438   -0.8112   -0.2245 C   0  0  0  0  0  0  0  0  0  0  0  0
    2.1650   -0.0353    0.0749 C   0  0  0  0  0  0  0  0  0  0  0  0
    0.7190    0.0327   -0.3001 C   0  0  0  0  0  0  0  0  0  0  0  0
   -0.0082   -1.0501   -0.5758 C   0  0  0  0  0  0  0  0  0  0  0  0
   -1.2560    0.2756    1.6213 H   0  0  0  0  0  0  0  0  0  0  0  0
   -2.3278    1.0922    0.3888 H   0  0  0  0  0  0  0  0  0  0  0  0
   -0.5889    1.5721   -1.0682 H   0  0  0  0  0  0  0  0  0  0  0  0
    0.2261    1.9507    0.5510 H   0  0  0  0  0  0  0  0  0  0  0  0
   -2.0829   -0.7590   -1.1260 H   0  0  0  0  0  0  0  0  0  0  0  0
   -1.8137   -1.6198    0.4547 H   0  0  0  0  0  0  0  0  0  0  0  0
    2.6486    0.9517    0.0734 H   0  0  0  0  0  0  0  0  0  0  0  0
    2.3298   -0.5372    1.0452 H   0  0  0  0  0  0  0  0  0  0  0  0
    2.6896   -0.6581   -0.6815 H   0  0  0  0  0  0  0  0  0  0  0  0
    0.3712   -2.0694   -0.6956 H   0  0  0  0  0  0  0  0  0  0  0  0
  1  3  1  0
  1  7  1  0
  1  8  1  0
  1  2  1  0
  2  5  1  0
  2 10  1  0
  2  9  1  0
  3 12  1  0
  3 11  1  0
  3  6  1  0
  4 14  1  0
  4  5  1  0
  4 13  1  0
  4 15  1  0
  5  6  2  0
  6 16  1  0
M  END
