
     RDKit          3D

 21 21  0  0  0  0  0  0  0  0999 V2000
    1.1819    0.2072   -1.6271 O   0  0  0  0  0  0  0  0  0  0  0  0
    2.2185    1.0267   -1.6299 O   0  0  0  0  0  0  0  0  0  0  0  0
   -1.5149    0.3769   -0.5051 C   0  0  0  0  0  0  0  0  0  0  0  0
   -1.9708    1.2639    0.6437 C   0  0  0  0  0  0  0  0  0  0  0  0
   -2.8903    0.1748    0.1121 C   0  0  0  0  0  0  0  0  0  0  0  0
   -0.4765   -0.6964   -0.1445 C   0  0  0  0  0  0  0  0  0  0  0  0
    0.9481   -0.1452   -0.2827 C   0  0  0  0  0  0  0  0  0  0  0  0
    1.9375   -1.2059    0.1367 C   0  0  0  0  0  0  0  0  0  0  0  0
    2.7738   -1.0277    1.1636 C   0  0  0  0  0  0  0  0  0  0  0  0
   -1.5165    0.8450   -1.5128 H   0  0  0  0  0  0  0  0  0  0  0  0
   -2.2649    2.2908    0.3405 H   0  0  0  0  0  0  0  0  0  0  0  0
   -1.5306    1.0404    1.6391 H   0  0  0  0  0  0  0  0  0  0  0  0
   -3.7324    0.5595   -0.5011 H   0  0  0  0  0  0  0  0  0  0  0  0
   -3.0018   -0.6938    0.7961 H   0  0  0  0  0  0  0  0  0  0  0  0
    1.0268    0.7514    0.3798 H   0  0  0  0  0  0  0  0  0  0  0  0
   -0.6121   -1.5583   -0.8338 H   0  0  0  0  0  0  0  0  0  0  0  0
   -0.6269   -1.0686    0.8944 H   0  0  0  0  0  0  0  0  0  0  0  0
    1.9724   -2.1408   -0.4156 H   0  0  0  0  0  0  0  0  0  0  0  0
    3.4726   -1.8122    1.4352 H   0  0  0  0  0  0  0  0  0  0  0  0
    2.7706   -0.1072    1.7390 H   0  0  0  0  0  0  0  0  0  0  0  0
    1.8352    1.9196   -1.8276 H   0  0  0  0  0  0  0  0  0  0  0  0
  1  2  1  0
  1  7  1  0
  2 21  1  0
  3  5  1  0
  3 10  1  0
  3  6  1  0
  3  4  1  0
  4  5  1  0
  4 11  1  0
  4 12  1  0
  5 14  1  0
  5 13  1  0
  6 16  1  0
  6  7  1  0
  6 17  1  0
  7  8  1  0
  7 15  1  0
  8 18  1  0
  8  9  2  3
  9 20  1  0
  9 19  1  0
M  END
