
     RDKit          3D

 22 23  0  0  0  0  0  0  0  0999 V2000
   -1.3144    0.1972   -0.7912 C   0  0  0  0  0  0  0  0  0  0  0  0
   -0.3150   -0.3160    0.2101 C   0  0  0  0  0  0  0  0  0  0  0  0
   -1.5121   -1.1137   -0.0928 C   0  0  0  0  0  0  0  0  0  0  0  0
   -2.3284    1.1552   -0.2226 C   0  0  0  0  0  0  0  0  0  0  0  0
   -2.7155   -0.8526    0.7283 C   0  0  0  0  0  0  0  0  0  0  0  0
    1.0063   -0.6148   -0.3892 C   0  0  0  0  0  0  0  0  0  0  0  0
   -3.3628    0.2344    0.2965 C   0  0  0  0  0  0  0  0  0  0  0  0
    1.9737    0.2752   -0.1621 C   0  0  0  0  0  0  0  0  0  0  0  0
    3.2716   -0.2238    0.3101 C   0  0  0  0  0  0  0  0  0  0  0  0
    4.3752    0.3738   -0.1273 C   0  0  0  0  0  0  0  0  0  0  0  0
   -1.1069    0.1650   -1.8680 H   0  0  0  0  0  0  0  0  0  0  0  0
   -0.2825    0.1601    1.2153 H   0  0  0  0  0  0  0  0  0  0  0  0
   -1.4507   -2.0707   -0.6383 H   0  0  0  0  0  0  0  0  0  0  0  0
   -2.6950    1.8588   -0.9851 H   0  0  0  0  0  0  0  0  0  0  0  0
   -1.8353    1.6997    0.6036 H   0  0  0  0  0  0  0  0  0  0  0  0
    1.0268   -1.0664   -1.3826 H   0  0  0  0  0  0  0  0  0  0  0  0
   -3.1588   -1.5071    1.4855 H   0  0  0  0  0  0  0  0  0  0  0  0
   -4.4228    0.3442    0.0464 H   0  0  0  0  0  0  0  0  0  0  0  0
    1.7546    1.3029    0.1381 H   0  0  0  0  0  0  0  0  0  0  0  0
    3.2920   -1.1110    0.9064 H   0  0  0  0  0  0  0  0  0  0  0  0
    4.5943    1.3982    0.1633 H   0  0  0  0  0  0  0  0  0  0  0  0
    5.2058   -0.2885   -0.3447 H   0  0  0  0  0  0  0  0  0  0  0  0
  1  4  1  0
  1 11  1  0
  1  3  1  0
  1  2  1  0
  2  6  1  0
  2 12  1  0
  2  3  1  0
  3 13  1  0
  3  5  1  0
  4 15  1  0
  4  7  1  0
  4 14  1  0
  5 17  1  0
  5  7  2  0
  6 16  1  0
  6  8  2  3
  7 18  1  0
  8 19  1  0
  8  9  1  0
  9 20  1  0
  9 10  2  3
 10 22  1  0
 10 21  1  0
M  END
