
     RDKit          3D

 19 20  0  0  0  0  0  0  0  0999 V2000
   -0.4186    0.3587   -0.9423 C   0  0  0  0  0  0  0  0  0  0  0  0
   -0.1691   -1.0196   -0.3516 C   0  0  0  0  0  0  0  0  0  0  0  0
    0.7714    1.2386   -0.5576 C   0  0  0  0  0  0  0  0  0  0  0  0
    1.1696   -0.9611    0.3853 C   0  0  0  0  0  0  0  0  0  0  0  0
   -1.4002   -0.8603    0.5438 C   0  0  0  0  0  0  0  0  0  0  0  0
   -1.6502    0.5207   -0.0481 C   0  0  0  0  0  0  0  0  0  0  0  0
    1.4847    0.5161    0.5771 C   0  0  0  0  0  0  0  0  0  0  0  0
   -0.6559    0.3471   -2.0291 H   0  0  0  0  0  0  0  0  0  0  0  0
   -0.2585   -1.8486   -1.0880 H   0  0  0  0  0  0  0  0  0  0  0  0
    2.5799    0.7044    0.5539 H   0  0  0  0  0  0  0  0  0  0  0  0
    1.0748    0.8599    1.5524 H   0  0  0  0  0  0  0  0  0  0  0  0
    0.4557    2.2614   -0.2579 H   0  0  0  0  0  0  0  0  0  0  0  0
    1.4569    1.3174   -1.4295 H   0  0  0  0  0  0  0  0  0  0  0  0
    1.9528   -1.4223   -0.2553 H   0  0  0  0  0  0  0  0  0  0  0  0
    1.1370   -1.5027    1.3554 H   0  0  0  0  0  0  0  0  0  0  0  0
   -1.1713   -0.8205    1.6317 H   0  0  0  0  0  0  0  0  0  0  0  0
   -2.2052   -1.5820    0.2844 H   0  0  0  0  0  0  0  0  0  0  0  0
   -2.5935    0.5631   -0.6349 H   0  0  0  0  0  0  0  0  0  0  0  0
   -1.5605    1.3297    0.7101 H   0  0  0  0  0  0  0  0  0  0  0  0
  1  8  1  0
  1  2  1  0
  1  3  1  0
  1  6  1  0
  2  5  1  0
  2  4  1  0
  2  9  1  0
  3  7  1  0
  3 12  1  0
  3 13  1  0
  4 15  1  0
  4 14  1  0
  4  7  1  0
  5 17  1  0
  5 16  1  0
  5  6  1  0
  6 18  1  0
  6 19  1  0
  7 11  1  0
  7 10  1  0
M  END
