
     RDKit          3D

 17 17  0  0  0  0  0  0  0  0999 V2000
   -1.6767    0.2748   -0.7924 C   0  0  0  0  0  0  0  0  0  0  0  0
   -0.2363    0.7495   -0.9227 C   0  0  0  0  0  0  0  0  0  0  0  0
   -1.6670   -0.7335    0.3224 C   0  0  0  0  0  0  0  0  0  0  0  0
    1.9050    0.2331    0.5117 C   0  0  0  0  0  0  0  0  0  0  0  0
    0.4175    0.2923    0.3473 C   0  0  0  0  0  0  0  0  0  0  0  0
   -0.4879   -0.2782    1.1194 C   0  0  0  0  0  0  0  0  0  0  0  0
    2.4639   -1.1393    0.2719 C   0  0  0  0  0  2  0  0  0  0  0  0
   -2.0178   -0.1985   -1.7226 H   0  0  0  0  0  0  0  0  0  0  0  0
   -2.3443    1.0954   -0.5083 H   0  0  0  0  0  0  0  0  0  0  0  0
    0.2479    0.2328   -1.7771 H   0  0  0  0  0  0  0  0  0  0  0  0
   -0.1747    1.8526   -1.0391 H   0  0  0  0  0  0  0  0  0  0  0  0
   -2.5631   -0.7185    0.9578 H   0  0  0  0  0  0  0  0  0  0  0  0
   -1.4257   -1.7600   -0.0308 H   0  0  0  0  0  0  0  0  0  0  0  0
    2.3776    0.9925   -0.1570 H   0  0  0  0  0  0  0  0  0  0  0  0
    2.1867    0.5465    1.5493 H   0  0  0  0  0  0  0  0  0  0  0  0
   -0.3984   -0.2994    2.2046 H   0  0  0  0  0  0  0  0  0  0  0  0
    3.3933   -1.1421   -0.3346 H   0  0  0  0  0  0  0  0  0  0  0  0
  1  3  1  0
  1  9  1  0
  1  8  1  0
  1  2  1  0
  2 10  1  0
  2  5  1  0
  2 11  1  0
  3 13  1  0
  3 12  1  0
  3  6  1  0
  4 14  1  0
  4  7  1  0
  4  5  1  0
  4 15  1  0
  5  6  2  0
  6 16  1  0
  7 17  1  0
M  RAD  1   7   3
M  END
