
     RDKit          3D

 20 20  0  0  0  0  0  0  0  0999 V2000
   -0.9253   -0.7479   -0.3059 C   0  0  0  0  0  0  0  0  0  0  0  0
   -0.6326   -1.8029    0.7198 C   0  0  0  0  0  0  0  0  0  0  0  0
    0.1899    0.1974   -0.5136 C   0  0  0  0  0  0  0  0  0  0  0  0
   -2.1746   -0.0056    0.0539 C   0  0  0  0  0  0  0  0  0  0  0  0
   -0.1691    1.5332   -1.0123 C   0  0  0  0  0  0  0  0  0  0  0  0
   -2.1612    1.3133    0.2499 C   0  0  0  0  0  0  0  0  0  0  0  0
   -1.3128    2.1025   -0.6315 C   0  0  0  0  0  0  0  0  0  0  0  0
    3.8992   -0.3310    0.4379 C   0  0  0  0  0  0  0  0  0  0  0  0
    1.4407   -0.1447   -0.3074 C   0  0  0  0  0  0  0  0  0  0  0  0
    2.6485   -0.3293    0.0656 C   0  0  0  0  0  0  0  0  0  0  0  0
   -1.1618   -1.2531   -1.2765 H   0  0  0  0  0  0  0  0  0  0  0  0
   -1.0948   -2.7778    0.4842 H   0  0  0  0  0  0  0  0  0  0  0  0
    0.4696   -1.8660    0.8715 H   0  0  0  0  0  0  0  0  0  0  0  0
   -1.1124   -1.4666    1.6737 H   0  0  0  0  0  0  0  0  0  0  0  0
   -3.0028   -0.5798    0.4647 H   0  0  0  0  0  0  0  0  0  0  0  0
    0.5639    2.0729   -1.6156 H   0  0  0  0  0  0  0  0  0  0  0  0
   -1.3738    3.1914   -0.6170 H   0  0  0  0  0  0  0  0  0  0  0  0
   -3.0177    1.7885    0.7082 H   0  0  0  0  0  0  0  0  0  0  0  0
    4.5703    0.4239    0.0223 H   0  0  0  0  0  0  0  0  0  0  0  0
    4.3567   -1.3184    0.5280 H   0  0  0  0  0  0  0  0  0  0  0  0
  1  3  1  0
  1  2  1  0
  1 11  1  0
  1  4  1  0
  2 12  1  0
  2 14  1  0
  2 13  1  0
  3  9  2  3
  3  5  1  0
  4  6  2  0
  4 15  1  0
  5  7  2  0
  5 16  1  0
  6  7  1  0
  6 18  1  0
  7 17  1  0
  8 20  1  0
  8 10  2  3
  8 19  1  0
  9 10  2  3
M  END
