
     RDKit          3D

 15 15  0  0  0  0  0  0  0  0999 V2000
   -1.5215   -0.0404   -0.3165 C   0  0  0  0  0  0  0  0  0  0  0  0
   -0.2206    0.6824   -0.1802 C   0  0  0  0  0  0  0  0  0  0  0  0
    0.8019   -0.2791    0.2255 C   0  0  0  0  0  0  0  0  0  0  0  0
   -1.1416   -1.4478    0.0391 C   0  0  0  0  0  0  0  0  0  0  0  0
    0.1463   -1.5697    0.3376 C   0  0  0  0  0  0  0  0  0  0  0  0
   -0.0556    1.9872   -0.3997 C   0  0  0  0  0  0  0  0  0  0  0  0
    2.0949   -0.0523    0.4569 C   0  0  0  0  0  0  0  0  0  0  0  0
   -1.8974    0.0100   -1.3605 H   0  0  0  0  0  0  0  0  0  0  0  0
   -2.2728    0.3536    0.4003 H   0  0  0  0  0  0  0  0  0  0  0  0
   -1.8364   -2.2772    0.0529 H   0  0  0  0  0  0  0  0  0  0  0  0
    0.6240   -2.4989    0.6208 H   0  0  0  0  0  0  0  0  0  0  0  0
    2.5203    0.9362    0.3547 H   0  0  0  0  0  0  0  0  0  0  0  0
    2.7464   -0.8641    0.7543 H   0  0  0  0  0  0  0  0  0  0  0  0
   -0.8973    2.5988   -0.6985 H   0  0  0  0  0  0  0  0  0  0  0  0
    0.9093    2.4612   -0.2865 H   0  0  0  0  0  0  0  0  0  0  0  0
  1  9  1  0
  1  8  1  0
  1  4  1  0
  1  2  1  0
  2  3  1  0
  2  6  2  3
  3  7  2  3
  3  5  1  0
  4 10  1  0
  4  5  2  0
  5 11  1  0
  6 14  1  0
  6 15  1  0
  7 12  1  0
  7 13  1  0
M  END
