
     RDKit          3D

 17 18  0  0  0  0  0  0  0  0999 V2000
    0.7717    0.3267    0.1272 C   0  0  0  0  0  0  0  0  0  0  0  0
   -0.4758    0.4852   -0.7516 C   0  0  0  0  0  0  0  0  0  0  0  0
   -0.9980   -0.7753   -0.3031 C   0  0  0  0  0  0  0  0  0  0  0  0
    0.2178   -1.0117    0.5980 C   0  0  0  0  0  0  0  0  0  0  0  0
    2.0635    0.2066   -0.6845 C   0  0  0  0  0  0  0  0  0  0  0  0
   -1.6428    1.1749   -0.1064 C   0  0  0  0  0  0  0  0  0  0  0  0
   -2.1508   -0.0513    0.3290 C   0  0  0  0  0  0  0  0  0  0  0  0
    0.8391    1.0834    0.9409 H   0  0  0  0  0  0  0  0  0  0  0  0
   -1.2197   -1.5093   -1.1090 H   0  0  0  0  0  0  0  0  0  0  0  0
   -0.3651    0.5839   -1.8550 H   0  0  0  0  0  0  0  0  0  0  0  0
    0.8130   -1.8925    0.2704 H   0  0  0  0  0  0  0  0  0  0  0  0
   -0.0354   -1.0195    1.6812 H   0  0  0  0  0  0  0  0  0  0  0  0
    2.3113    1.1909   -1.1342 H   0  0  0  0  0  0  0  0  0  0  0  0
    2.8955   -0.0988   -0.0159 H   0  0  0  0  0  0  0  0  0  0  0  0
    1.9603   -0.5436   -1.4983 H   0  0  0  0  0  0  0  0  0  0  0  0
   -1.9612    2.2075   -0.0156 H   0  0  0  0  0  0  0  0  0  0  0  0
   -3.0235   -0.3572    0.8954 H   0  0  0  0  0  0  0  0  0  0  0  0
  1  2  1  0
  1  4  1  0
  1  5  1  0
  1  8  1  0
  2 10  1  0
  2  3  1  0
  2  6  1  0
  3  4  1  0
  3  9  1  0
  3  7  1  0
  4 11  1  0
  4 12  1  0
  5 15  1  0
  5 14  1  0
  5 13  1  0
  6 16  1  0
  6  7  2  0
  7 17  1  0
M  END
