
     RDKit          3D

 17 17  0  0  0  0  0  0  0  0999 V2000
   -1.3409   -1.1572   -0.1496 C   0  0  0  0  0  0  0  0  0  0  0  0
   -2.2910    0.0272   -0.1803 C   0  0  0  0  0  0  0  0  0  0  0  0
    0.6731    0.5674   -0.7522 C   0  0  0  0  0  0  0  0  0  0  0  0
   -0.3556   -0.0565    0.1043 C   0  0  0  0  0  0  0  0  0  0  0  0
   -1.3253    0.5290    0.8226 C   0  0  0  0  0  0  0  0  0  0  0  0
    1.9733   -0.1563   -0.5576 C   0  0  0  0  0  0  0  0  0  0  0  0
    2.5395    0.0516    0.6389 C   0  0  0  0  0  0  0  0  0  0  0  0
   -2.2031    0.5848   -1.1291 H   0  0  0  0  0  0  0  0  0  0  0  0
   -3.3087   -0.1721    0.1870 H   0  0  0  0  0  0  0  0  0  0  0  0
   -1.4224   -1.8007    0.7351 H   0  0  0  0  0  0  0  0  0  0  0  0
   -1.2686   -1.6375   -1.1324 H   0  0  0  0  0  0  0  0  0  0  0  0
    0.3974    0.5550   -1.8251 H   0  0  0  0  0  0  0  0  0  0  0  0
    0.8678    1.6363   -0.5037 H   0  0  0  0  0  0  0  0  0  0  0  0
   -1.2577    0.9465    1.8097 H   0  0  0  0  0  0  0  0  0  0  0  0
    2.6559   -0.1983   -1.4124 H   0  0  0  0  0  0  0  0  0  0  0  0
    2.9749   -0.7730    1.2125 H   0  0  0  0  0  0  0  0  0  0  0  0
    2.6915    1.0538    1.0292 H   0  0  0  0  0  0  0  0  0  0  0  0
  1 10  1  0
  1 11  1  0
  1  4  1  0
  1  2  1  0
  2  5  1  0
  2  8  1  0
  2  9  1  0
  3  4  1  0
  3  6  1  0
  3 13  1  0
  3 12  1  0
  4  5  2  0
  5 14  1  0
  6  7  2  3
  6 15  1  0
  7 16  1  0
  7 17  1  0
M  END
