
     RDKit          3D

 11 11  0  0  0  0  0  0  0  0999 V2000
    1.2752    0.7342    0.6239 C   0  0  0  0  0  0  0  0  0  0  0  0
    0.3926   -0.2536    0.1840 C   0  0  0  0  0  0  0  0  0  0  0  0
    1.7906   -0.5458    0.4147 C   0  0  0  0  0  0  0  0  0  0  0  0
   -0.9464   -0.6828   -0.2149 C   0  0  0  0  0  0  0  0  0  0  0  0
   -1.9628    0.1723   -0.2213 C   0  0  0  0  0  0  0  0  0  0  0  0
    1.1545    1.0099    1.6916 H   0  0  0  0  0  0  0  0  0  0  0  0
    1.5559    1.4733   -0.1543 H   0  0  0  0  0  0  0  0  0  0  0  0
    2.6185   -1.2413    0.4201 H   0  0  0  0  0  0  0  0  0  0  0  0
   -1.1056   -1.7123   -0.5080 H   0  0  0  0  0  0  0  0  0  0  0  0
   -1.8243    1.2069    0.0685 H   0  0  0  0  0  0  0  0  0  0  0  0
   -2.9483   -0.1609   -0.5193 H   0  0  0  0  0  0  0  0  0  0  0  0
  1  2  1  0
  1  6  1  0
  1  7  1  0
  1  3  1  0
  2  3  2  0
  2  4  1  0
  3  8  1  0
  4  5  2  3
  4  9  1  0
  5 10  1  0
  5 11  1  0
M  END
