
     RDKit          3D

 11 11  0  0  0  0  0  0  0  0999 V2000
    1.3217    0.7847    0.6092 C   0  0  0  0  0  0  0  0  0  0  0  0
    0.3091   -0.1768    0.1874 C   0  0  0  0  0  0  0  0  0  0  0  0
    1.6745   -0.5776    0.0980 C   0  0  0  0  0  0  0  0  0  0  0  0
   -1.0403   -0.7419    0.3088 C   0  0  0  0  0  0  0  0  0  0  0  0
   -1.9983   -0.0103   -0.2453 C   0  0  0  0  0  0  0  0  0  0  0  0
    1.3760    0.9772    1.6941 H   0  0  0  0  0  0  0  0  0  0  0  0
    1.5832    1.6588   -0.0031 H   0  0  0  0  0  0  0  0  0  0  0  0
    2.2303   -1.1600   -0.6397 H   0  0  0  0  0  0  0  0  0  0  0  0
   -1.2227   -1.6156    0.9171 H   0  0  0  0  0  0  0  0  0  0  0  0
   -2.1239    0.9869    0.1815 H   0  0  0  0  0  0  0  0  0  0  0  0
   -2.1097   -0.1254   -1.3231 H   0  0  0  0  0  0  0  0  0  0  0  0
  1  2  1  0
  1  6  1  0
  1  7  1  0
  1  3  1  0
  2  3  2  0
  2  4  1  0
  3  8  1  0
  4  5  2  3
  4  9  1  0
  5 10  1  0
  5 11  1  0
M  END
