
     RDKit          3D

 19 19  0  0  0  0  0  0  0  0999 V2000
   -1.7969    0.5490    0.2358 C   0  0  0  0  0  0  0  0  0  0  0  0
    2.8254   -0.1922    0.3961 C   0  0  0  0  0  0  0  0  0  0  0  0
    3.0087    0.2817   -0.9651 C   0  0  0  0  0  0  0  0  0  0  0  0
   -0.6582   -0.4311    0.2606 C   0  0  0  0  0  0  0  0  0  0  0  0
   -3.1405   -0.0860    0.0360 C   0  0  0  0  0  0  0  0  0  0  0  0
    1.6711   -0.1171   -0.4997 C   0  0  0  0  0  0  0  0  0  0  0  0
    0.3611   -0.1375   -0.7796 C   0  0  0  0  0  0  0  0  0  0  0  0
   -1.8384    1.1895    1.1528 H   0  0  0  0  0  0  0  0  0  0  0  0
   -1.6155    1.2536   -0.6057 H   0  0  0  0  0  0  0  0  0  0  0  0
    2.9869    0.5629    1.1996 H   0  0  0  0  0  0  0  0  0  0  0  0
    3.2810   -1.1786    0.6672 H   0  0  0  0  0  0  0  0  0  0  0  0
    3.1994    1.3501   -1.2171 H   0  0  0  0  0  0  0  0  0  0  0  0
    3.4835   -0.4034   -1.7122 H   0  0  0  0  0  0  0  0  0  0  0  0
   -1.1076   -1.4449    0.1154 H   0  0  0  0  0  0  0  0  0  0  0  0
   -0.1419   -0.3604    1.2419 H   0  0  0  0  0  0  0  0  0  0  0  0
   -3.7859    0.6515   -0.4944 H   0  0  0  0  0  0  0  0  0  0  0  0
   -3.1065   -1.0718   -0.4513 H   0  0  0  0  0  0  0  0  0  0  0  0
   -3.6280   -0.2532    1.0280 H   0  0  0  0  0  0  0  0  0  0  0  0
    0.0023   -0.1622   -1.8142 H   0  0  0  0  0  0  0  0  0  0  0  0
  1  8  1  0
  1  5  1  0
  1  4  1  0
  1  9  1  0
  2  6  1  0
  2  3  1  0
  2 10  1  0
  2 11  1  0
  3 13  1  0
  3  6  1  0
  3 12  1  0
  4 14  1  0
  4  7  1  0
  4 15  1  0
  5 18  1  0
  5 16  1  0
  5 17  1  0
  6  7  2  3
  7 19  1  0
M  END
