
     RDKit          3D

 20 21  0  0  0  0  0  0  0  0999 V2000
   -0.0519    1.9860    0.2451 C   0  0  0  0  0  0  0  0  0  0  0  0
    2.5928   -0.5535    0.3714 C   0  0  0  0  0  0  0  0  0  0  0  0
   -0.8426    0.7766   -0.1406 C   0  0  0  0  0  0  0  0  0  0  0  0
    1.4314    0.2939   -0.0270 C   0  0  0  0  0  0  0  0  0  0  0  0
    0.0958   -0.2285   -0.3466 C   0  0  0  0  0  0  0  0  0  0  0  0
    1.3495    1.6118   -0.0571 C   0  0  0  0  0  0  0  0  0  0  0  0
   -2.1690    0.4644    0.0261 C   0  0  0  0  0  0  0  0  0  0  0  0
   -0.3687   -1.5085   -0.6266 C   0  0  0  0  0  0  0  0  0  0  0  0
   -2.5911   -0.8448   -0.1653 C   0  0  0  0  0  0  0  0  0  0  0  0
   -1.6907   -1.8755   -0.4053 C   0  0  0  0  0  0  0  0  0  0  0  0
   -0.3371    2.8779   -0.3421 H   0  0  0  0  0  0  0  0  0  0  0  0
   -0.1712    2.1644    1.3236 H   0  0  0  0  0  0  0  0  0  0  0  0
    2.6405   -1.4067   -0.3490 H   0  0  0  0  0  0  0  0  0  0  0  0
    3.5502   -0.0114    0.2440 H   0  0  0  0  0  0  0  0  0  0  0  0
    2.4285   -0.8972    1.4189 H   0  0  0  0  0  0  0  0  0  0  0  0
    2.1980    2.2460   -0.3016 H   0  0  0  0  0  0  0  0  0  0  0  0
   -2.8705    1.1198    0.5452 H   0  0  0  0  0  0  0  0  0  0  0  0
   -3.6310   -1.0755   -0.4014 H   0  0  0  0  0  0  0  0  0  0  0  0
   -1.9173   -2.8972   -0.0943 H   0  0  0  0  0  0  0  0  0  0  0  0
    0.3544   -2.2419   -0.9175 H   0  0  0  0  0  0  0  0  0  0  0  0
  1  6  1  0
  1  3  1  0
  1 12  1  0
  1 11  1  0
  2 15  1  0
  2 14  1  0
  2  4  1  0
  2 13  1  0
  3  5  2  0
  3  7  1  0
  4  6  2  0
  4  5  1  0
  5  8  1  0
  6 16  1  0
  7  9  2  0
  7 17  1  0
  8 10  2  0
  8 20  1  0
  9 18  1  0
  9 10  1  0
 10 19  1  0
M  END
