
     RDKit          3D

 21 22  0  0  0  0  0  0  0  0999 V2000
   -0.1775   -0.5617   -0.5533 C   0  0  0  0  0  0  0  0  0  0  0  0
   -1.5286   -1.0674   -0.0856 C   0  0  0  0  0  0  0  0  0  0  0  0
   -2.3261    0.2338   -0.0988 C   0  0  0  0  0  0  0  0  0  0  0  0
   -1.4072    1.1445    0.6688 C   0  0  0  0  0  0  0  0  0  0  0  0
    2.4220    0.4970    0.0909 C   0  0  0  0  0  0  0  0  0  0  0  0
   -0.0398    0.6826    0.2673 C   0  0  0  0  0  0  0  0  0  0  0  0
    0.9351   -1.4553   -0.1659 C   0  0  0  0  0  0  0  0  0  0  0  0
    1.1630    1.2373    0.3235 C   0  0  0  0  0  0  0  0  0  0  0  0
    2.1705   -0.9410   -0.2206 C   0  0  0  0  0  0  0  0  0  0  0  0
   -0.1897   -0.3133   -1.6265 H   0  0  0  0  0  0  0  0  0  0  0  0
   -2.3447    0.6077   -1.1511 H   0  0  0  0  0  0  0  0  0  0  0  0
   -3.3247    0.1236    0.3437 H   0  0  0  0  0  0  0  0  0  0  0  0
   -1.4073   -1.4154    0.9658 H   0  0  0  0  0  0  0  0  0  0  0  0
   -1.9526   -1.8312   -0.7532 H   0  0  0  0  0  0  0  0  0  0  0  0
   -1.5971    2.1740    0.3379 H   0  0  0  0  0  0  0  0  0  0  0  0
   -1.5576    1.1064    1.7621 H   0  0  0  0  0  0  0  0  0  0  0  0
    2.9891    0.9747   -0.7482 H   0  0  0  0  0  0  0  0  0  0  0  0
    3.0287    0.5399    1.0209 H   0  0  0  0  0  0  0  0  0  0  0  0
    0.8569   -2.5197   -0.3847 H   0  0  0  0  0  0  0  0  0  0  0  0
    3.0380   -1.5104   -0.5342 H   0  0  0  0  0  0  0  0  0  0  0  0
    1.2497    2.2940    0.5412 H   0  0  0  0  0  0  0  0  0  0  0  0
  1 10  1  0
  1  7  1  0
  1  6  1  0
  1  2  1  0
  2  3  1  0
  2 13  1  0
  2 14  1  0
  3 12  1  0
  3  4  1  0
  3 11  1  0
  4  6  1  0
  4 15  1  0
  4 16  1  0
  5 17  1  0
  5 18  1  0
  5  9  1  0
  5  8  1  0
  6  8  2  0
  7 19  1  0
  7  9  2  0
  8 21  1  0
  9 20  1  0
M  END
