
     RDKit          3D

 19 19  0  0  0  0  0  0  0  0999 V2000
   -1.1557   -1.1391    0.0340 C   0  0  0  0  0  0  0  0  0  0  0  0
   -1.6901    0.0798    0.7779 C   0  0  0  0  0  0  0  0  0  0  0  0
    0.3209   -1.2164    0.4094 C   0  0  0  0  0  0  0  0  0  0  0  0
   -1.2041    1.2821   -0.0152 C   0  0  0  0  0  0  0  0  0  0  0  0
    2.4131    0.1075   -0.2268 C   0  0  0  0  0  0  0  0  0  0  0  0
    0.9353    0.0237   -0.1640 C   0  0  0  0  0  0  0  0  0  0  0  0
    0.2031    1.0966   -0.4236 C   0  0  0  0  0  0  0  0  0  0  0  0
   -1.7049   -2.0531    0.2991 H   0  0  0  0  0  0  0  0  0  0  0  0
   -1.1609   -0.9302   -1.0660 H   0  0  0  0  0  0  0  0  0  0  0  0
   -2.7837    0.0621    0.8866 H   0  0  0  0  0  0  0  0  0  0  0  0
   -1.2260    0.1361    1.7946 H   0  0  0  0  0  0  0  0  0  0  0  0
    0.3540   -1.1099    1.5168 H   0  0  0  0  0  0  0  0  0  0  0  0
    0.7870   -2.1374    0.0364 H   0  0  0  0  0  0  0  0  0  0  0  0
   -1.3197    2.2011    0.5723 H   0  0  0  0  0  0  0  0  0  0  0  0
   -1.8867    1.3624   -0.8918 H   0  0  0  0  0  0  0  0  0  0  0  0
    2.7893    0.5929   -1.1434 H   0  0  0  0  0  0  0  0  0  0  0  0
    2.7689    0.6043    0.7071 H   0  0  0  0  0  0  0  0  0  0  0  0
    2.8502   -0.9233   -0.2311 H   0  0  0  0  0  0  0  0  0  0  0  0
    0.7098    1.9608   -0.8553 H   0  0  0  0  0  0  0  0  0  0  0  0
  1  2  1  0
  1  3  1  0
  1  8  1  0
  1  9  1  0
  2  4  1  0
  2 10  1  0
  2 11  1  0
  3 12  1  0
  3  6  1  0
  3 13  1  0
  4 15  1  0
  4 14  1  0
  4  7  1  0
  5 18  1  0
  5 16  1  0
  5  6  1  0
  5 17  1  0
  6  7  2  0
  7 19  1  0
M  END
