
     RDKit          3D

 17 18  0  0  0  0  0  0  0  0999 V2000
    0.6535   -0.0154    0.3997 C   0  0  0  0  0  0  0  0  0  0  0  0
   -0.5906    0.1451   -0.4252 C   0  0  0  0  0  0  0  0  0  0  0  0
    1.9636    0.5070   -0.0103 C   0  0  0  0  0  0  0  0  0  0  0  0
    1.6956   -0.9773   -0.1945 C   0  0  0  0  0  0  0  0  0  0  0  0
   -1.6571   -0.8252    0.0762 C   0  0  0  0  0  0  0  0  0  0  0  0
   -1.4743    1.2503    0.0925 C   0  0  0  0  0  0  0  0  0  0  0  0
   -2.0241    0.2457    1.0987 C   0  0  0  0  0  2  0  0  0  0  0  0
    0.4287   -0.1185    1.4914 H   0  0  0  0  0  0  0  0  0  0  0  0
   -0.4837    0.0645   -1.5130 H   0  0  0  0  0  0  0  0  0  0  0  0
    2.1056    1.1229   -0.9174 H   0  0  0  0  0  0  0  0  0  0  0  0
    2.6739    0.7485    0.8214 H   0  0  0  0  0  0  0  0  0  0  0  0
    2.0780   -1.6995    0.5438 H   0  0  0  0  0  0  0  0  0  0  0  0
    1.5228   -1.3272   -1.2440 H   0  0  0  0  0  0  0  0  0  0  0  0
   -2.4738   -1.0208   -0.6453 H   0  0  0  0  0  0  0  0  0  0  0  0
   -1.1833   -1.7351    0.5203 H   0  0  0  0  0  0  0  0  0  0  0  0
   -2.2750    1.5184   -0.6196 H   0  0  0  0  0  0  0  0  0  0  0  0
   -0.9597    2.1166    0.5254 H   0  0  0  0  0  0  0  0  0  0  0  0
  1  4  1  0
  1  8  1  0
  1  3  1  0
  1  2  1  0
  2  5  1  0
  2  6  1  0
  2  9  1  0
  3  4  1  0
  3 10  1  0
  3 11  1  0
  4 13  1  0
  4 12  1  0
  5 14  1  0
  5 15  1  0
  5  7  1  0
  6  7  1  0
  6 16  1  0
  6 17  1  0
M  RAD  1   7   3
M  END
