
     RDKit          3D

 30 30  0  0  0  0  0  0  0  0999 V2000
    0.1197   -1.4763    0.3604 C   0  0  0  0  0  0  0  0  0  0  0  0
   -0.9040   -0.9699   -0.6791 C   0  0  0  0  0  0  0  0  0  0  0  0
   -1.6064    0.3177   -0.2211 C   0  0  0  0  0  0  0  0  0  0  0  0
   -2.6639    0.7591   -1.2390 C   0  0  0  0  0  0  0  0  0  0  0  0
    0.6839   -2.8416   -0.0535 C   0  0  0  0  0  0  0  0  0  0  0  0
   -3.3587    2.0416   -0.7910 C   0  0  0  0  0  0  0  0  0  0  0  0
    1.2448   -0.4802    0.5843 C   0  0  0  0  0  0  0  0  0  0  0  0
    2.1063   -0.1060   -0.4659 C   0  0  0  0  0  0  0  0  0  0  0  0
    1.4334    0.0925    1.8555 C   0  0  0  0  0  0  0  0  0  0  0  0
    3.1306    0.8194   -0.2451 C   0  0  0  0  0  0  0  0  0  0  0  0
    3.3071    1.3807    1.0216 C   0  0  0  0  0  0  0  0  0  0  0  0
    2.4595    1.0176    2.0705 C   0  0  0  0  0  0  0  0  0  0  0  0
   -0.4282   -1.6386    1.3161 H   0  0  0  0  0  0  0  0  0  0  0  0
   -3.4275   -0.0404   -1.3578 H   0  0  0  0  0  0  0  0  0  0  0  0
   -2.1831    0.9365   -2.2258 H   0  0  0  0  0  0  0  0  0  0  0  0
   -2.0939    0.1413    0.7630 H   0  0  0  0  0  0  0  0  0  0  0  0
   -0.8563    1.1300   -0.1030 H   0  0  0  0  0  0  0  0  0  0  0  0
   -1.6754   -1.7569   -0.8331 H   0  0  0  0  0  0  0  0  0  0  0  0
   -0.4051   -0.7948   -1.6572 H   0  0  0  0  0  0  0  0  0  0  0  0
   -4.1181    2.3361   -1.5457 H   0  0  0  0  0  0  0  0  0  0  0  0
   -2.6204    2.8655   -0.6901 H   0  0  0  0  0  0  0  0  0  0  0  0
   -3.8686    1.8841    0.1833 H   0  0  0  0  0  0  0  0  0  0  0  0
    1.1751   -2.7872   -1.0481 H   0  0  0  0  0  0  0  0  0  0  0  0
   -0.1337   -3.5920   -0.1051 H   0  0  0  0  0  0  0  0  0  0  0  0
    1.4261   -3.1910    0.6960 H   0  0  0  0  0  0  0  0  0  0  0  0
    1.9866   -0.5273   -1.4554 H   0  0  0  0  0  0  0  0  0  0  0  0
    3.7879    1.1020   -1.0573 H   0  0  0  0  0  0  0  0  0  0  0  0
    4.1005    2.0973    1.1902 H   0  0  0  0  0  0  0  0  0  0  0  0
    2.5967    1.4540    3.0514 H   0  0  0  0  0  0  0  0  0  0  0  0
    0.7851   -0.1732    2.6811 H   0  0  0  0  0  0  0  0  0  0  0  0
  1  5  1  0
  1 13  1  0
  1  7  1  0
  1  2  1  0
  2  3  1  0
  2 19  1  0
  2 18  1  0
  3  4  1  0
  3 17  1  0
  3 16  1  0
  4 14  1  0
  4  6  1  0
  4 15  1  0
  5 25  1  0
  5 24  1  0
  5 23  1  0
  6 21  1  0
  6 20  1  0
  6 22  1  0
  7  9  2  0
  7  8  1  0
  8 10  2  0
  8 26  1  0
  9 30  1  0
  9 12  1  0
 10 11  1  0
 10 27  1  0
 11 12  2  0
 11 28  1  0
 12 29  1  0
M  END
