
     RDKit          3D

 17 17  0  0  0  0  0  0  0  0999 V2000
   -1.5924    0.9516    0.2146 C   0  0  0  0  0  0  0  0  0  0  0  0
   -1.7382   -0.5573    0.4330 C   0  0  0  0  0  0  0  0  0  0  0  0
   -0.1898    1.1837   -0.3378 C   0  0  0  0  0  0  0  0  0  0  0  0
   -0.3275   -1.1224    0.5623 C   0  0  0  0  0  0  0  0  0  0  0  0
    0.5385   -0.0638   -0.0076 C   0  0  0  0  0  0  0  0  0  0  0  0
    3.1008   -0.3672   -0.3929 C   0  0  0  0  0  0  0  0  0  0  0  0
    1.8216   -0.2157   -0.2005 C   0  0  0  0  0  0  0  0  0  0  0  0
   -1.6980    1.4757    1.1903 H   0  0  0  0  0  0  0  0  0  0  0  0
   -2.3680    1.3331   -0.4844 H   0  0  0  0  0  0  0  0  0  0  0  0
   -2.2392   -1.0095   -0.4515 H   0  0  0  0  0  0  0  0  0  0  0  0
   -2.3433   -0.7753    1.3396 H   0  0  0  0  0  0  0  0  0  0  0  0
   -0.2173    1.3239   -1.4402 H   0  0  0  0  0  0  0  0  0  0  0  0
    0.2843    2.0637    0.1493 H   0  0  0  0  0  0  0  0  0  0  0  0
   -0.0653   -1.2905    1.6295 H   0  0  0  0  0  0  0  0  0  0  0  0
   -0.2293   -2.0702   -0.0108 H   0  0  0  0  0  0  0  0  0  0  0  0
    3.5727   -1.3138   -0.1680 H   0  0  0  0  0  0  0  0  0  0  0  0
    3.6903    0.4538   -0.7773 H   0  0  0  0  0  0  0  0  0  0  0  0
  1  9  1  0
  1  8  1  0
  1  3  1  0
  1  2  1  0
  2  4  1  0
  2 11  1  0
  2 10  1  0
  3 12  1  0
  3  5  1  0
  3 13  1  0
  4 15  1  0
  4  5  1  0
  4 14  1  0
  5  7  2  3
  6  7  2  3
  6 17  1  0
  6 16  1  0
M  END
