
     RDKit          3D

 17 17  0  0  0  0  0  0  0  0999 V2000
   -1.5317    1.0091    0.2964 C   0  0  0  0  0  0  0  0  0  0  0  0
   -1.7270   -0.5002    0.3519 C   0  0  0  0  0  0  0  0  0  0  0  0
   -0.1145    1.1280   -0.2501 C   0  0  0  0  0  0  0  0  0  0  0  0
   -0.3660   -1.1131    0.2782 C   0  0  0  0  0  0  0  0  0  0  0  0
    0.5658    0.0428    0.4956 C   0  0  0  0  0  0  0  0  0  0  0  0
    3.0909   -0.2349   -0.0842 C   0  0  0  0  0  0  0  0  0  0  0  0
    1.8777   -0.0011    0.3772 C   0  0  0  0  0  0  0  0  0  0  0  0
   -1.6272    1.4469    1.3026 H   0  0  0  0  0  0  0  0  0  0  0  0
   -2.2832    1.4151   -0.3950 H   0  0  0  0  0  0  0  0  0  0  0  0
   -2.3951   -0.8325   -0.4806 H   0  0  0  0  0  0  0  0  0  0  0  0
   -2.1750   -0.7768    1.3323 H   0  0  0  0  0  0  0  0  0  0  0  0
   -0.1515    0.8814   -1.3320 H   0  0  0  0  0  0  0  0  0  0  0  0
    0.3110    2.1247   -0.0688 H   0  0  0  0  0  0  0  0  0  0  0  0
   -0.1442   -1.8568    1.0512 H   0  0  0  0  0  0  0  0  0  0  0  0
   -0.1113   -1.5142   -0.7121 H   0  0  0  0  0  0  0  0  0  0  0  0
    3.4038   -1.2310    0.1942 H   0  0  0  0  0  0  0  0  0  0  0  0
    3.3774    0.0124   -1.1095 H   0  0  0  0  0  0  0  0  0  0  0  0
  1  9  1  0
  1  8  1  0
  1  3  1  0
  1  2  1  0
  2  4  1  0
  2 11  1  0
  2 10  1  0
  3 12  1  0
  3  5  1  0
  3 13  1  0
  4 15  1  0
  4  5  1  0
  4 14  1  0
  5  7  2  3
  6  7  2  3
  6 17  1  0
  6 16  1  0
M  END
