
     RDKit          3D

 22 23  0  0  0  0  0  0  0  0999 V2000
   -0.1286    0.6898   -0.0680 C   0  0  0  0  0  0  0  0  0  0  0  0
    1.1427    0.6789    0.7582 C   0  0  0  0  0  0  0  0  0  0  0  0
   -1.2916    1.3036    0.6596 C   0  0  0  0  0  0  0  0  0  0  0  0
    1.0263   -1.4022   -0.3448 C   0  0  0  0  0  0  0  0  0  0  0  0
   -0.3268   -0.7615   -0.3500 C   0  0  0  0  0  0  0  0  0  0  0  0
    1.9652   -0.2986   -0.0266 C   0  0  0  0  0  0  0  0  0  0  0  0
   -2.5916    0.8087    0.1647 C   0  0  0  0  0  0  0  0  0  0  0  0
   -1.5487   -1.2628   -0.3161 C   0  0  0  0  0  0  0  0  0  0  0  0
   -2.7504   -0.4557   -0.1902 C   0  0  0  0  0  0  0  0  0  0  0  0
    3.2653   -0.1814   -0.1856 C   0  0  0  0  0  0  0  0  0  0  0  0
    0.0671    1.1726   -1.0349 H   0  0  0  0  0  0  0  0  0  0  0  0
   -1.1685    1.0968    1.7399 H   0  0  0  0  0  0  0  0  0  0  0  0
    1.6072    1.6703    0.8256 H   0  0  0  0  0  0  0  0  0  0  0  0
    0.9785    0.2101    1.7427 H   0  0  0  0  0  0  0  0  0  0  0  0
   -1.2348    2.4106    0.5051 H   0  0  0  0  0  0  0  0  0  0  0  0
    0.9905   -2.1515    0.4867 H   0  0  0  0  0  0  0  0  0  0  0  0
    1.2830   -1.8511   -1.3141 H   0  0  0  0  0  0  0  0  0  0  0  0
   -3.4136    1.4868   -0.0176 H   0  0  0  0  0  0  0  0  0  0  0  0
   -1.6875   -2.3453   -0.2882 H   0  0  0  0  0  0  0  0  0  0  0  0
   -3.7311   -0.9252   -0.2138 H   0  0  0  0  0  0  0  0  0  0  0  0
    3.9120   -0.6753    0.5458 H   0  0  0  0  0  0  0  0  0  0  0  0
    3.6352    0.7825   -0.5466 H   0  0  0  0  0  0  0  0  0  0  0  0
  1  2  1  0
  1  3  1  0
  1 11  1  0
  1  5  1  0
  2 13  1  0
  2  6  1  0
  2 14  1  0
  3 12  1  0
  3 15  1  0
  3  7  1  0
  4 17  1  0
  4  5  1  0
  4 16  1  0
  4  6  1  0
  5  8  2  0
  6 10  2  3
  7 18  1  0
  7  9  2  0
  8 19  1  0
  8  9  1  0
  9 20  1  0
 10 21  1  0
 10 22  1  0
M  END
