
     RDKit          3D

 17 18  0  0  0  0  0  0  0  0999 V2000
    0.0498   -0.2249    0.0564 C   0  0  0  0  0  0  0  0  0  0  0  0
   -1.3832   -0.4362   -0.4763 C   0  0  0  0  0  0  0  0  0  0  0  0
   -0.7081   -1.4985    0.3638 C   0  0  0  0  0  0  0  0  0  0  0  0
   -0.3959    1.0768    0.7052 C   0  0  0  0  0  0  0  0  0  0  0  0
   -1.8103    0.8501    0.2136 C   0  0  0  0  0  0  0  0  0  0  0  0
    2.4747   -0.1153   -0.5809 C   0  0  0  0  0  0  0  0  0  0  0  0
    1.0491   -0.1943   -1.1006 C   0  0  0  0  0  2  0  0  0  0  0  0
   -1.3917   -0.5032   -1.5876 H   0  0  0  0  0  0  0  0  0  0  0  0
   -0.3153    1.0386    1.8131 H   0  0  0  0  0  0  0  0  0  0  0  0
    0.0790    1.9730    0.2491 H   0  0  0  0  0  0  0  0  0  0  0  0
   -2.1436    1.6231   -0.5121 H   0  0  0  0  0  0  0  0  0  0  0  0
   -2.5299    0.6637    1.0402 H   0  0  0  0  0  0  0  0  0  0  0  0
   -0.3785   -2.3894   -0.2111 H   0  0  0  0  0  0  0  0  0  0  0  0
   -1.0855   -1.5754    1.4057 H   0  0  0  0  0  0  0  0  0  0  0  0
    2.6162    0.8140    0.0103 H   0  0  0  0  0  0  0  0  0  0  0  0
    3.1740   -0.1031   -1.4418 H   0  0  0  0  0  0  0  0  0  0  0  0
    2.6992   -0.9991    0.0529 H   0  0  0  0  0  0  0  0  0  0  0  0
  1  4  1  0
  1  3  1  0
  1  2  1  0
  1  7  1  0
  2  5  1  0
  2  3  1  0
  2  8  1  0
  3 13  1  0
  3 14  1  0
  4  5  1  0
  4  9  1  0
  4 10  1  0
  5 11  1  0
  5 12  1  0
  6 15  1  0
  6 17  1  0
  6 16  1  0
  6  7  1  0
M  RAD  1   7   3
M  END
