
     RDKit          3D

 22 23  0  0  0  0  0  0  0  0999 V2000
   -0.4820    0.3019   -0.5886 C   0  0  0  0  0  0  0  0  0  0  0  0
    0.8033   -0.2076   -0.0118 C   0  0  0  0  0  0  0  0  0  0  0  0
   -1.5108   -0.7634   -0.8272 C   0  0  0  0  0  0  0  0  0  0  0  0
   -1.1341    1.1262    0.5153 C   0  0  0  0  0  0  0  0  0  0  0  0
    1.7813    0.8907    0.0364 C   0  0  0  0  0  0  0  0  0  0  0  0
    1.4573   -1.2496   -0.8264 C   0  0  0  0  0  0  0  0  0  0  0  0
   -2.6421   -0.4883    0.1057 C   0  0  0  0  0  0  0  0  0  0  0  0
   -2.5732    0.8031    0.4417 C   0  0  0  0  0  0  0  0  0  0  0  0
    2.7660   -1.0260   -0.7093 C   0  0  0  0  0  0  0  0  0  0  0  0
    2.9235    0.4083   -0.4510 C   0  0  0  0  0  0  0  0  0  0  0  0
   -0.3407    0.9482   -1.4898 H   0  0  0  0  0  0  0  0  0  0  0  0
    0.5795   -0.6454    0.9726 H   0  0  0  0  0  0  0  0  0  0  0  0
   -1.0969   -1.7725   -0.7074 H   0  0  0  0  0  0  0  0  0  0  0  0
   -1.9172   -0.6495   -1.8632 H   0  0  0  0  0  0  0  0  0  0  0  0
   -0.7752    0.7963    1.5235 H   0  0  0  0  0  0  0  0  0  0  0  0
   -0.9038    2.1957    0.4367 H   0  0  0  0  0  0  0  0  0  0  0  0
   -3.6058   -0.9843   -0.0143 H   0  0  0  0  0  0  0  0  0  0  0  0
   -3.3229    1.3219    1.0223 H   0  0  0  0  0  0  0  0  0  0  0  0
    1.5450    1.9535    0.0482 H   0  0  0  0  0  0  0  0  0  0  0  0
    1.0781   -2.2725   -0.8627 H   0  0  0  0  0  0  0  0  0  0  0  0
    3.5901   -1.7174   -0.6516 H   0  0  0  0  0  0  0  0  0  0  0  0
    3.7804    1.0305   -0.7071 H   0  0  0  0  0  0  0  0  0  0  0  0
  1  4  1  0
  1  3  1  0
  1 11  1  0
  1  2  1  0
  2  6  1  0
  2  5  1  0
  2 12  1  0
  3  7  1  0
  3 14  1  0
  3 13  1  0
  4 16  1  0
  4 15  1  0
  4  8  1  0
  5 10  2  0
  5 19  1  0
  6 20  1  0
  6  9  2  0
  7  8  2  0
  7 17  1  0
  8 18  1  0
  9 10  1  0
  9 21  1  0
 10 22  1  0
M  END
