
     RDKit          3D

 20 20  0  0  0  0  0  0  0  0999 V2000
    0.9667   -1.7221   -0.3320 C   0  0  0  0  0  0  0  0  0  0  0  0
   -0.5726    0.2578    0.3457 C   0  0  0  0  0  0  0  0  0  0  0  0
    0.7005   -0.3500    0.1045 C   0  0  0  0  0  0  0  0  0  0  0  0
   -0.2925   -2.5139   -0.1741 C   0  0  0  0  0  0  0  0  0  0  0  0
   -1.6514   -0.5216    0.2379 C   0  0  0  0  0  0  0  0  0  0  0  0
   -1.4842   -1.9149   -0.1814 C   0  0  0  0  0  0  0  0  0  0  0  0
   -0.8062    1.6460    0.6847 C   0  0  0  0  0  0  0  0  0  0  0  0
   -1.0384    2.4648   -0.3408 C   0  0  0  0  0  0  0  0  0  0  0  0
    2.6274    1.3693   -0.2949 C   0  0  0  0  0  0  0  0  0  0  0  0
    1.6714    0.4874   -0.1752 C   0  0  0  0  0  0  0  0  0  0  0  0
    1.7713   -2.1841    0.2840 H   0  0  0  0  0  0  0  0  0  0  0  0
    1.2571   -1.7205   -1.4033 H   0  0  0  0  0  0  0  0  0  0  0  0
   -0.2630   -3.5665   -0.4518 H   0  0  0  0  0  0  0  0  0  0  0  0
   -2.5862   -0.2019    0.6986 H   0  0  0  0  0  0  0  0  0  0  0  0
   -2.3526   -2.4994   -0.4789 H   0  0  0  0  0  0  0  0  0  0  0  0
   -1.3466    1.8896    1.6006 H   0  0  0  0  0  0  0  0  0  0  0  0
   -2.0287    2.4320   -0.7993 H   0  0  0  0  0  0  0  0  0  0  0  0
   -0.5876    3.4565   -0.3232 H   0  0  0  0  0  0  0  0  0  0  0  0
    2.7611    1.7374   -1.2803 H   0  0  0  0  0  0  0  0  0  0  0  0
    3.2547    1.4542    0.5561 H   0  0  0  0  0  0  0  0  0  0  0  0
  1 12  1  0
  1  3  1  0
  1 11  1  0
  1  4  1  0
  2  5  2  0
  2  7  1  0
  2  3  1  0
  3 10  2  3
  4 13  1  0
  4  6  2  0
  5  6  1  0
  5 14  1  0
  6 15  1  0
  7  8  2  3
  7 16  1  0
  8 17  1  0
  8 18  1  0
  9 10  2  3
  9 20  1  0
  9 19  1  0
M  END
