
     RDKit          3D

 19 19  0  0  0  0  0  0  0  0999 V2000
   -0.5217    0.2315   -0.3501 C   0  0  0  0  0  0  0  0  0  0  0  0
   -1.7575   -0.1069    0.4705 C   0  0  0  0  0  0  0  0  0  0  0  0
    0.5271   -0.8341   -0.0979 C   0  0  0  0  0  0  0  0  0  0  0  0
    2.9986    0.2584   -1.0351 C   0  0  0  0  0  0  0  0  0  0  0  0
   -2.9439    0.5035   -0.2272 C   0  0  0  0  0  0  0  0  0  0  0  0
    1.8518   -0.1353   -0.1555 C   0  0  0  0  0  0  0  0  0  0  0  0
    3.1613   -0.2304    0.3593 C   0  0  0  0  0  0  0  0  0  0  0  0
   -0.1605    1.2477   -0.1111 H   0  0  0  0  0  0  0  0  0  0  0  0
   -0.7792    0.1978   -1.4248 H   0  0  0  0  0  0  0  0  0  0  0  0
   -1.8711   -1.1949    0.6138 H   0  0  0  0  0  0  0  0  0  0  0  0
   -1.6820    0.3478    1.4885 H   0  0  0  0  0  0  0  0  0  0  0  0
    0.4665   -1.6416   -0.8670 H   0  0  0  0  0  0  0  0  0  0  0  0
    0.3724   -1.3265    0.8833 H   0  0  0  0  0  0  0  0  0  0  0  0
    3.1968    1.3247   -1.2193 H   0  0  0  0  0  0  0  0  0  0  0  0
    3.2788   -0.4820   -1.8201 H   0  0  0  0  0  0  0  0  0  0  0  0
   -3.3567    1.3631    0.3522 H   0  0  0  0  0  0  0  0  0  0  0  0
   -2.6912    0.8887   -1.2475 H   0  0  0  0  0  0  0  0  0  0  0  0
   -3.7248   -0.2844   -0.3688 H   0  0  0  0  0  0  0  0  0  0  0  0
    3.6352   -0.1271    1.3400 H   0  0  0  0  0  0  0  0  0  0  0  0
  1  3  1  0
  1  9  1  0
  1  8  1  0
  1  2  1  0
  2  5  1  0
  2 11  1  0
  2 10  1  0
  3  6  1  0
  3 12  1  0
  3 13  1  0
  4  7  1  0
  4  6  1  0
  4 14  1  0
  4 15  1  0
  5 17  1  0
  5 16  1  0
  5 18  1  0
  6  7  2  0
  7 19  1  0
M  END
