
     RDKit          3D

 20 20  0  0  0  0  0  0  0  0999 V2000
    2.1290    0.7773    0.3606 C   0  0  0  0  0  0  0  0  0  0  0  0
   -3.8286    0.0775    0.4754 C   0  0  0  0  0  0  0  0  0  0  0  0
    0.8010    0.7326   -0.3287 C   0  0  0  0  0  0  0  0  0  0  0  0
    0.0321   -0.5150   -0.4424 C   0  0  0  0  0  0  0  0  0  0  0  0
    2.7448   -0.5588    0.1649 C   0  0  0  0  0  0  0  0  0  0  0  0
    0.5572   -1.5701    0.1848 C   0  0  0  0  0  0  0  0  0  0  0  0
    2.0160   -1.6472    0.3372 C   0  0  0  0  0  0  0  0  0  0  0  0
    0.4295    1.7169   -1.1130 C   0  0  0  0  0  0  0  0  0  0  0  0
   -2.5873   -0.2645   -0.2441 C   0  0  0  0  0  0  0  0  0  0  0  0
   -1.4096   -0.4093   -0.5211 C   0  0  0  0  0  0  0  0  0  0  0  0
    2.7449    1.5923   -0.0467 H   0  0  0  0  0  0  0  0  0  0  0  0
    1.9440    0.8885    1.4464 H   0  0  0  0  0  0  0  0  0  0  0  0
   -3.6876    0.0631    1.5785 H   0  0  0  0  0  0  0  0  0  0  0  0
   -4.5892   -0.6595    0.1311 H   0  0  0  0  0  0  0  0  0  0  0  0
   -4.1458    1.1105    0.2263 H   0  0  0  0  0  0  0  0  0  0  0  0
    3.7158   -0.6578   -0.3222 H   0  0  0  0  0  0  0  0  0  0  0  0
   -0.0709   -2.3166    0.6733 H   0  0  0  0  0  0  0  0  0  0  0  0
    2.4864   -2.6295    0.3919 H   0  0  0  0  0  0  0  0  0  0  0  0
    0.1279    2.7000   -0.7699 H   0  0  0  0  0  0  0  0  0  0  0  0
    0.5903    1.5697   -2.1821 H   0  0  0  0  0  0  0  0  0  0  0  0
  1 12  1  0
  1  3  1  0
  1  5  1  0
  1 11  1  0
  2 13  1  0
  2 14  1  0
  2 15  1  0
  2  9  1  0
  3  8  2  3
  3  4  1  0
  4  6  2  0
  4 10  1  0
  5 16  1  0
  5  7  2  0
  6 17  1  0
  6  7  1  0
  7 18  1  0
  8 20  1  0
  8 19  1  0
  9 10  3  0
M  END
