
     RDKit          3D

 19 19  0  0  0  0  0  0  0  0999 V2000
    1.3159   -0.7250   -0.0841 C   0  0  0  0  0  0  0  0  0  0  0  0
    0.8753    0.3776    0.8810 C   0  0  0  0  0  0  0  0  0  0  0  0
   -1.6785    1.5205    0.9253 C   0  0  0  0  0  0  0  0  0  0  0  0
    2.7690   -1.1210    0.1595 C   0  0  0  0  0  0  0  0  0  0  0  0
   -2.5758   -0.0835   -1.1801 C   0  0  0  0  0  0  0  0  0  0  0  0
   -0.5476    0.7520    0.6281 C   0  0  0  0  0  0  0  0  0  0  0  0
   -1.7861    0.5869   -0.1112 C   0  0  0  0  0  0  0  0  0  0  0  0
    1.2100   -0.3696   -1.1327 H   0  0  0  0  0  0  0  0  0  0  0  0
    0.6707   -1.6209    0.0507 H   0  0  0  0  0  0  0  0  0  0  0  0
    1.5099    1.2791    0.7444 H   0  0  0  0  0  0  0  0  0  0  0  0
    0.9693    0.0252    1.9303 H   0  0  0  0  0  0  0  0  0  0  0  0
   -2.1971    1.2262    1.8606 H   0  0  0  0  0  0  0  0  0  0  0  0
   -1.6157    2.5746    0.5856 H   0  0  0  0  0  0  0  0  0  0  0  0
    2.8963   -1.5038    1.1946 H   0  0  0  0  0  0  0  0  0  0  0  0
    3.4379   -0.2474    0.0062 H   0  0  0  0  0  0  0  0  0  0  0  0
    3.0607   -1.9209   -0.5533 H   0  0  0  0  0  0  0  0  0  0  0  0
   -2.9156    0.6722   -1.9178 H   0  0  0  0  0  0  0  0  0  0  0  0
   -1.9415   -0.8383   -1.6891 H   0  0  0  0  0  0  0  0  0  0  0  0
   -3.4573   -0.5842   -0.7297 H   0  0  0  0  0  0  0  0  0  0  0  0
  1  2  1  0
  1  8  1  0
  1  4  1  0
  1  9  1  0
  2  6  1  0
  2 11  1  0
  2 10  1  0
  3  6  1  0
  3 13  1  0
  3  7  1  0
  3 12  1  0
  4 14  1  0
  4 16  1  0
  4 15  1  0
  5 17  1  0
  5 19  1  0
  5  7  1  0
  5 18  1  0
  6  7  2  0
M  END
