
     RDKit          3D

 17 17  0  0  0  0  0  0  0  0999 V2000
    0.3673   -0.0454   -0.5732 C   0  0  0  0  0  0  0  0  0  0  0  0
   -0.5146   -1.0675    0.1070 C   0  0  0  0  0  0  0  0  0  0  0  0
   -1.8868   -0.4025    0.1137 C   0  0  0  0  0  0  0  0  0  0  0  0
    1.6138    0.2602    0.2369 C   0  0  0  0  0  0  0  0  0  0  0  0
   -0.4719    1.1974   -0.5536 C   0  0  0  0  0  0  0  0  0  0  0  0
   -1.4904    1.0323    0.3011 C   0  0  0  0  0  0  0  0  0  0  0  0
    2.7914   -0.1599   -0.6318 C   0  0  0  0  0  2  0  0  0  0  0  0
    0.5885   -0.3510   -1.6051 H   0  0  0  0  0  0  0  0  0  0  0  0
   -0.2233   -1.1742    1.1601 H   0  0  0  0  0  0  0  0  0  0  0  0
   -0.5759   -2.0136   -0.4553 H   0  0  0  0  0  0  0  0  0  0  0  0
   -2.3833   -0.4727   -0.8696 H   0  0  0  0  0  0  0  0  0  0  0  0
   -2.5196   -0.7513    0.9414 H   0  0  0  0  0  0  0  0  0  0  0  0
    1.5980   -0.3125    1.1977 H   0  0  0  0  0  0  0  0  0  0  0  0
    1.6786    1.3356    0.5171 H   0  0  0  0  0  0  0  0  0  0  0  0
   -1.8265    1.7146    1.0891 H   0  0  0  0  0  0  0  0  0  0  0  0
   -0.0969    2.1535   -0.8884 H   0  0  0  0  0  0  0  0  0  0  0  0
    3.3516   -0.9429   -0.0874 H   0  0  0  0  0  0  0  0  0  0  0  0
  1  2  1  0
  1  8  1  0
  1  5  1  0
  1  4  1  0
  2 10  1  0
  2  3  1  0
  2  9  1  0
  3 12  1  0
  3 11  1  0
  3  6  1  0
  4 14  1  0
  4 13  1  0
  4  7  1  0
  5  6  2  0
  5 16  1  0
  6 15  1  0
  7 17  1  0
M  RAD  1   7   3
M  END
