
     RDKit          3D

 17 17  0  0  0  0  0  0  0  0999 V2000
    0.4201    0.2431   -0.5258 C   0  0  0  0  0  0  0  0  0  0  0  0
   -0.4963   -0.9937   -0.4209 C   0  0  0  0  0  0  0  0  0  0  0  0
   -1.8517   -0.4843    0.0802 C   0  0  0  0  0  0  0  0  0  0  0  0
    1.6659    0.1461    0.3680 C   0  0  0  0  0  0  0  0  0  0  0  0
   -0.4479    1.3732   -0.0896 C   0  0  0  0  0  0  0  0  0  0  0  0
   -1.6668    0.9807    0.2345 C   0  0  0  0  0  0  0  0  0  0  0  0
    2.6071   -0.9382   -0.1346 C   0  0  0  0  0  2  0  0  0  0  0  0
    0.7232    0.4138   -1.5829 H   0  0  0  0  0  0  0  0  0  0  0  0
   -0.0959   -1.7576    0.2819 H   0  0  0  0  0  0  0  0  0  0  0  0
   -0.6123   -1.4671   -1.4206 H   0  0  0  0  0  0  0  0  0  0  0  0
   -2.6547   -0.6900   -0.6597 H   0  0  0  0  0  0  0  0  0  0  0  0
   -2.1113   -0.9377    1.0608 H   0  0  0  0  0  0  0  0  0  0  0  0
    1.3741   -0.0767    1.4178 H   0  0  0  0  0  0  0  0  0  0  0  0
    2.2110    1.1149    0.3532 H   0  0  0  0  0  0  0  0  0  0  0  0
   -2.4432    1.6594    0.5723 H   0  0  0  0  0  0  0  0  0  0  0  0
   -0.1263    2.4093   -0.0505 H   0  0  0  0  0  0  0  0  0  0  0  0
    3.5051   -0.9953    0.5159 H   0  0  0  0  0  0  0  0  0  0  0  0
  1  2  1  0
  1  8  1  0
  1  5  1  0
  1  4  1  0
  2 10  1  0
  2  3  1  0
  2  9  1  0
  3 12  1  0
  3 11  1  0
  3  6  1  0
  4 14  1  0
  4 13  1  0
  4  7  1  0
  5  6  2  0
  5 16  1  0
  6 15  1  0
  7 17  1  0
M  RAD  1   7   3
M  END
