
     RDKit          3D

 13 13  0  0  0  0  0  0  0  0999 V2000
   -0.1572    1.1638    0.1209 C   0  0  0  0  0  0  0  0  0  0  0  0
    0.4317   -0.1930   -0.0767 C   0  0  0  0  0  0  0  0  0  0  0  0
   -1.6090    0.8280    0.2238 C   0  0  0  0  0  0  0  0  0  0  0  0
   -0.5081   -1.1237   -0.0846 C   0  0  0  0  0  0  0  0  0  0  0  0
   -1.7942   -0.4777    0.1051 C   0  0  0  0  0  0  0  0  0  0  0  0
    1.8353   -0.4603   -0.2380 C   0  0  0  0  0  0  0  0  0  0  0  0
    3.0121   -0.6835   -0.3732 C   0  0  0  0  0  0  0  0  0  0  0  0
    0.0369    1.8161   -0.7568 H   0  0  0  0  0  0  0  0  0  0  0  0
    0.2097    1.6262    1.0617 H   0  0  0  0  0  0  0  0  0  0  0  0
   -2.4054    1.5448    0.3744 H   0  0  0  0  0  0  0  0  0  0  0  0
   -0.3431   -2.1862   -0.2113 H   0  0  0  0  0  0  0  0  0  0  0  0
   -2.7541   -0.9751    0.1443 H   0  0  0  0  0  0  0  0  0  0  0  0
    4.0453   -0.8795   -0.4918 H   0  0  0  0  0  0  0  0  0  0  0  0
  1  8  1  0
  1  3  1  0
  1  2  1  0
  1  9  1  0
  2  4  2  0
  2  6  1  0
  3  5  2  0
  3 10  1  0
  4 11  1  0
  4  5  1  0
  5 12  1  0
  6  7  3  0
  7 13  1  0
M  END
