
     RDKit          3D

 18 18  0  0  0  0  0  0  0  0999 V2000
   -0.2446    0.1608   -0.2657 C   0  0  0  0  0  0  0  0  0  0  0  0
   -1.0373    0.7244   -1.2810 C   0  0  0  0  0  0  0  0  0  0  0  0
   -0.8781   -0.5497    0.7756 C   0  0  0  0  0  0  0  0  0  0  0  0
    1.2242    0.3673   -0.3157 C   0  0  0  0  0  0  0  0  0  0  0  0
   -2.4261    0.5632   -1.2711 C   0  0  0  0  0  0  0  0  0  0  0  0
   -2.2679   -0.7068    0.7802 C   0  0  0  0  0  0  0  0  0  0  0  0
   -3.0406   -0.1541   -0.2431 C   0  0  0  0  0  0  0  0  0  0  0  0
    2.1063   -0.3806    0.3555 C   0  0  0  0  0  0  0  0  0  0  0  0
    3.5169   -0.1231    0.2395 C   0  0  0  0  0  0  0  0  0  0  0  0
    4.6991    0.0921    0.1427 C   0  0  0  0  0  0  0  0  0  0  0  0
    1.5999    1.1499   -0.9670 H   0  0  0  0  0  0  0  0  0  0  0  0
   -0.5799    1.2843   -2.0878 H   0  0  0  0  0  0  0  0  0  0  0  0
   -0.3153   -0.9663    1.5987 H   0  0  0  0  0  0  0  0  0  0  0  0
   -3.0261    0.9960   -2.0612 H   0  0  0  0  0  0  0  0  0  0  0  0
   -2.7472   -1.2526    1.5828 H   0  0  0  0  0  0  0  0  0  0  0  0
   -4.1160   -0.2766   -0.2360 H   0  0  0  0  0  0  0  0  0  0  0  0
    1.7958   -1.2094    0.9749 H   0  0  0  0  0  0  0  0  0  0  0  0
    5.7369    0.2811    0.0578 H   0  0  0  0  0  0  0  0  0  0  0  0
  1  4  1  0
  1  2  2  0
  1  3  1  0
  2 12  1  0
  2  5  1  0
  3 13  1  0
  3  6  2  0
  4 11  1  0
  4  8  2  3
  5  7  2  0
  5 14  1  0
  6  7  1  0
  6 15  1  0
  7 16  1  0
  8 17  1  0
  8  9  1  0
  9 10  3  0
 10 18  1  0
M  END
