
     RDKit          3D

 19 19  0  0  0  0  0  0  0  0999 V2000
   -0.8275    0.1563   -0.1364 C   0  0  0  0  0  0  0  0  0  0  0  0
    0.1225    0.8207    0.8704 C   0  0  0  0  0  0  0  0  0  0  0  0
   -0.2460   -1.1942   -0.5969 C   0  0  0  0  0  0  0  0  0  0  0  0
    1.4874    1.0921    0.2242 C   0  0  0  0  0  0  0  0  0  0  0  0
   -2.2214   -0.0325    0.4713 C   0  0  0  0  0  0  0  0  0  0  0  0
    1.9999   -0.0801   -0.5761 C   0  0  0  0  0  0  0  0  0  0  0  0
    1.2164   -1.1028   -0.9578 C   0  0  0  0  0  0  0  0  0  0  0  0
   -0.9283    0.8222   -1.0234 H   0  0  0  0  0  0  0  0  0  0  0  0
    0.2584    0.1583    1.7545 H   0  0  0  0  0  0  0  0  0  0  0  0
   -0.3065    1.7837    1.2239 H   0  0  0  0  0  0  0  0  0  0  0  0
    2.2205    1.3309    1.0239 H   0  0  0  0  0  0  0  0  0  0  0  0
    1.4148    1.9735   -0.4485 H   0  0  0  0  0  0  0  0  0  0  0  0
   -0.3564   -1.9584    0.2030 H   0  0  0  0  0  0  0  0  0  0  0  0
   -0.8104   -1.5450   -1.4877 H   0  0  0  0  0  0  0  0  0  0  0  0
   -2.8992   -0.5073   -0.2699 H   0  0  0  0  0  0  0  0  0  0  0  0
   -2.1724   -0.6750    1.3768 H   0  0  0  0  0  0  0  0  0  0  0  0
   -2.6513    0.9521    0.7537 H   0  0  0  0  0  0  0  0  0  0  0  0
    3.0410   -0.0752   -0.8841 H   0  0  0  0  0  0  0  0  0  0  0  0
    1.6585   -1.9194   -1.5206 H   0  0  0  0  0  0  0  0  0  0  0  0
  1  2  1  0
  1  3  1  0
  1  8  1  0
  1  5  1  0
  2  4  1  0
  2 10  1  0
  2  9  1  0
  3  7  1  0
  3 13  1  0
  3 14  1  0
  4 11  1  0
  4  6  1  0
  4 12  1  0
  5 17  1  0
  5 16  1  0
  5 15  1  0
  6 18  1  0
  6  7  2  0
  7 19  1  0
M  END
