
     RDKit          3D

 20 21  0  0  0  0  0  0  0  0999 V2000
   -1.1383    1.4464    0.3387 C   0  0  0  0  0  0  0  0  0  0  0  0
   -1.0893   -1.4412   -0.4886 C   0  0  0  0  0  0  0  0  0  0  0  0
    0.1503    0.6779    0.2052 C   0  0  0  0  0  0  0  0  0  0  0  0
    0.1733   -0.6786   -0.1834 C   0  0  0  0  0  0  0  0  0  0  0  0
   -2.3742    0.6488    0.0253 C   0  0  0  0  0  0  0  0  0  0  0  0
   -2.3523   -0.6380   -0.3433 C   0  0  0  0  0  0  0  0  0  0  0  0
    1.3593    1.3393    0.4776 C   0  0  0  0  0  0  0  0  0  0  0  0
    1.4049   -1.3456   -0.2916 C   0  0  0  0  0  0  0  0  0  0  0  0
    2.5997   -0.6764   -0.0179 C   0  0  0  0  0  0  0  0  0  0  0  0
    2.5769    0.6645    0.3663 C   0  0  0  0  0  0  0  0  0  0  0  0
   -1.2247    1.8242    1.3798 H   0  0  0  0  0  0  0  0  0  0  0  0
   -1.1074    2.3206   -0.3460 H   0  0  0  0  0  0  0  0  0  0  0  0
   -1.0371   -1.8190   -1.5320 H   0  0  0  0  0  0  0  0  0  0  0  0
   -1.1543   -2.3154    0.1939 H   0  0  0  0  0  0  0  0  0  0  0  0
   -3.3341    1.1503    0.1043 H   0  0  0  0  0  0  0  0  0  0  0  0
   -3.2953   -1.1351   -0.5504 H   0  0  0  0  0  0  0  0  0  0  0  0
    1.3570    2.3803    0.7769 H   0  0  0  0  0  0  0  0  0  0  0  0
    1.4380   -2.3868   -0.5888 H   0  0  0  0  0  0  0  0  0  0  0  0
    3.5440   -1.1983   -0.1038 H   0  0  0  0  0  0  0  0  0  0  0  0
    3.5036    1.1821    0.5781 H   0  0  0  0  0  0  0  0  0  0  0  0
  1 12  1  0
  1 11  1  0
  1  5  1  0
  1  3  1  0
  2 13  1  0
  2  4  1  0
  2 14  1  0
  2  6  1  0
  3  4  2  0
  3  7  1  0
  4  8  1  0
  5  6  2  0
  5 15  1  0
  6 16  1  0
  7 17  1  0
  7 10  2  0
  8  9  2  0
  8 18  1  0
  9 19  1  0
  9 10  1  0
 10 20  1  0
M  END
