
     RDKit          3D

 20 21  0  0  0  0  0  0  0  0999 V2000
   -1.5973   -1.3285    0.4800 C   0  0  0  0  0  0  0  0  0  0  0  0
    3.3215    0.0395    0.0699 C   0  0  0  0  0  0  0  0  0  0  0  0
   -0.3140   -0.5956    0.2255 C   0  0  0  0  0  0  0  0  0  0  0  0
    1.8297    0.0844    0.0140 C   0  0  0  0  0  0  0  0  0  0  0  0
   -0.2779    0.7457   -0.2997 C   0  0  0  0  0  0  0  0  0  0  0  0
   -2.7983   -0.4719    0.1131 C   0  0  0  0  0  0  0  0  0  0  0  0
    0.9296   -1.0089    0.4196 C   0  0  0  0  0  0  0  0  0  0  0  0
    1.1189    1.1280   -0.4137 C   0  0  0  0  0  0  0  0  0  0  0  0
   -1.3787    1.4279   -0.5955 C   0  0  0  0  0  0  0  0  0  0  0  0
   -2.6932    0.7816   -0.3758 C   0  0  0  0  0  0  0  0  0  0  0  0
   -1.6589   -1.5981    1.5553 H   0  0  0  0  0  0  0  0  0  0  0  0
   -1.6157   -2.2580   -0.1270 H   0  0  0  0  0  0  0  0  0  0  0  0
    3.6956    0.8443    0.7369 H   0  0  0  0  0  0  0  0  0  0  0  0
    3.6624   -0.9411    0.4633 H   0  0  0  0  0  0  0  0  0  0  0  0
    3.7389    0.1832   -0.9487 H   0  0  0  0  0  0  0  0  0  0  0  0
   -3.7852   -0.8942    0.2534 H   0  0  0  0  0  0  0  0  0  0  0  0
    1.2197   -1.9769    0.8068 H   0  0  0  0  0  0  0  0  0  0  0  0
    1.5141    2.0696   -0.7728 H   0  0  0  0  0  0  0  0  0  0  0  0
   -1.3190    2.4345   -0.9888 H   0  0  0  0  0  0  0  0  0  0  0  0
   -3.5923    1.3345   -0.6158 H   0  0  0  0  0  0  0  0  0  0  0  0
  1 11  1  0
  1  3  1  0
  1 12  1  0
  1  6  1  0
  2 13  1  0
  2  4  1  0
  2 15  1  0
  2 14  1  0
  3  7  2  0
  3  5  1  0
  4  7  1  0
  4  8  2  0
  5  8  1  0
  5  9  2  0
  6 10  2  0
  6 16  1  0
  7 17  1  0
  8 18  1  0
  9 10  1  0
  9 19  1  0
 10 20  1  0
M  END
