
     RDKit          3D

 19 19  0  0  0  0  0  0  0  0999 V2000
   -0.2219   -0.4087    0.3887 C   0  0  0  0  0  0  0  0  0  0  0  0
   -1.1494    0.2048   -0.5762 C   0  0  0  0  0  0  0  0  0  0  0  0
   -1.3841   -1.1985   -0.1996 C   0  0  0  0  0  0  0  0  0  0  0  0
    1.1170   -0.9593   -0.0246 C   0  0  0  0  0  0  0  0  0  0  0  0
   -2.2018    1.1706   -0.0554 C   0  0  0  0  0  0  0  0  0  0  0  0
    2.2603   -0.2341    0.5638 C   0  0  0  0  0  0  0  0  0  0  0  0
    2.5345    1.0294    0.2124 C   0  0  0  0  0  0  0  0  0  0  0  0
   -0.7280    0.4432   -1.5721 H   0  0  0  0  0  0  0  0  0  0  0  0
   -0.3608   -0.1529    1.4497 H   0  0  0  0  0  0  0  0  0  0  0  0
   -1.1711   -1.9984   -0.9376 H   0  0  0  0  0  0  0  0  0  0  0  0
   -2.2303   -1.4736    0.4754 H   0  0  0  0  0  0  0  0  0  0  0  0
    1.1424   -0.9645   -1.1439 H   0  0  0  0  0  0  0  0  0  0  0  0
    1.1452   -2.0118    0.3553 H   0  0  0  0  0  0  0  0  0  0  0  0
   -3.1544    0.6298    0.1764 H   0  0  0  0  0  0  0  0  0  0  0  0
   -1.7610    1.6373    0.8458 H   0  0  0  0  0  0  0  0  0  0  0  0
   -2.4119    1.9405   -0.8404 H   0  0  0  0  0  0  0  0  0  0  0  0
    3.1375   -0.7977    0.8987 H   0  0  0  0  0  0  0  0  0  0  0  0
    3.5168    1.3279   -0.1656 H   0  0  0  0  0  0  0  0  0  0  0  0
    1.9210    1.8161    0.6436 H   0  0  0  0  0  0  0  0  0  0  0  0
  1  3  1  0
  1  9  1  0
  1  4  1  0
  1  2  1  0
  2  3  1  0
  2  8  1  0
  2  5  1  0
  3 11  1  0
  3 10  1  0
  4  6  1  0
  4 12  1  0
  4 13  1  0
  5 15  1  0
  5 14  1  0
  5 16  1  0
  6  7  2  3
  6 17  1  0
  7 19  1  0
  7 18  1  0
M  END
