
     RDKit          3D

 17 17  0  0  0  0  0  0  0  0999 V2000
   -1.4119    0.4956    0.1227 C   0  0  0  0  0  0  0  0  0  0  0  0
   -0.9891   -0.9074    0.5958 C   0  0  0  0  0  0  0  0  0  0  0  0
   -0.2886    1.3559   -0.4848 C   0  0  0  0  0  0  0  0  0  0  0  0
    0.0016   -1.5816   -0.3158 C   0  0  0  0  0  0  0  0  0  0  0  0
    1.0317    1.2189    0.2261 C   0  0  0  0  0  0  0  0  0  0  0  0
    1.2641   -1.1528   -0.4435 C   0  0  0  0  0  0  0  0  0  0  0  0
    1.7556    0.0928    0.1812 C   0  0  0  0  0  0  0  0  0  0  0  0
   -2.2181    0.3919   -0.6360 H   0  0  0  0  0  0  0  0  0  0  0  0
   -1.8506    1.0363    0.9896 H   0  0  0  0  0  0  0  0  0  0  0  0
   -1.8966   -1.5436    0.6766 H   0  0  0  0  0  0  0  0  0  0  0  0
   -0.5516   -0.8384    1.6160 H   0  0  0  0  0  0  0  0  0  0  0  0
   -0.6036    2.4212   -0.4593 H   0  0  0  0  0  0  0  0  0  0  0  0
   -0.1518    1.0854   -1.5549 H   0  0  0  0  0  0  0  0  0  0  0  0
   -0.2863   -2.5080   -0.7974 H   0  0  0  0  0  0  0  0  0  0  0  0
    1.4595    2.0962    0.6955 H   0  0  0  0  0  0  0  0  0  0  0  0
    2.7640    0.1043    0.5747 H   0  0  0  0  0  0  0  0  0  0  0  0
    1.9717   -1.7666   -0.9862 H   0  0  0  0  0  0  0  0  0  0  0  0
  1  8  1  0
  1  3  1  0
  1  2  1  0
  1  9  1  0
  2 10  1  0
  2 11  1  0
  2  4  1  0
  3  5  1  0
  3 12  1  0
  3 13  1  0
  4  6  2  0
  4 14  1  0
  5 15  1  0
  5  7  2  0
  6 17  1  0
  6  7  1  0
  7 16  1  0
M  END
