
     RDKit          3D

 19 20  0  0  0  0  0  0  0  0999 V2000
    0.5446   -0.1614   -0.0039 C   0  0  0  0  0  0  0  0  0  0  0  0
    0.0782    1.2450   -0.3248 C   0  0  0  0  0  0  0  0  0  0  0  0
   -0.6083   -1.0879    0.3285 C   0  0  0  0  0  0  0  0  0  0  0  0
    1.7430   -0.7298   -0.7481 C   0  0  0  0  0  0  0  0  0  0  0  0
    1.8688   -0.3404    0.7224 C   0  0  0  0  0  0  0  0  0  0  0  0
   -1.4395    1.1075   -0.3897 C   0  0  0  0  0  0  0  0  0  0  0  0
   -1.8052   -0.1462    0.4128 C   0  0  0  0  0  0  0  0  0  0  0  0
    0.4839    1.6158   -1.2910 H   0  0  0  0  0  0  0  0  0  0  0  0
    0.3594    1.9387    0.4974 H   0  0  0  0  0  0  0  0  0  0  0  0
   -1.9444    2.0087    0.0206 H   0  0  0  0  0  0  0  0  0  0  0  0
   -1.7527    0.9684   -1.4481 H   0  0  0  0  0  0  0  0  0  0  0  0
   -0.7612   -1.8197   -0.4946 H   0  0  0  0  0  0  0  0  0  0  0  0
   -0.4575   -1.6236    1.2908 H   0  0  0  0  0  0  0  0  0  0  0  0
    2.2660   -0.0314   -1.4355 H   0  0  0  0  0  0  0  0  0  0  0  0
    1.7320   -1.8282   -0.9140 H   0  0  0  0  0  0  0  0  0  0  0  0
   -2.7249   -0.6252    0.0126 H   0  0  0  0  0  0  0  0  0  0  0  0
    2.4601    0.5861    0.8842 H   0  0  0  0  0  0  0  0  0  0  0  0
    1.9359   -1.2136    1.4056 H   0  0  0  0  0  0  0  0  0  0  0  0
   -1.9782    0.1371    1.4747 H   0  0  0  0  0  0  0  0  0  0  0  0
  1  2  1  0
  1  3  1  0
  1  5  1  0
  1  4  1  0
  2  9  1  0
  2  6  1  0
  2  8  1  0
  3  7  1  0
  3 12  1  0
  3 13  1  0
  4 14  1  0
  4 15  1  0
  4  5  1  0
  5 17  1  0
  5 18  1  0
  6  7  1  0
  6 11  1  0
  6 10  1  0
  7 19  1  0
  7 16  1  0
M  END
