
     RDKit          3D

 20 22  0  0  0  0  0  0  0  0999 V2000
    0.2254    0.5104   -0.1961 C   0  0  0  0  0  0  0  0  0  0  0  0
    0.4305   -0.7542    0.5242 C   0  0  0  0  0  0  0  0  0  0  0  0
   -0.3690   -0.7068   -0.7581 C   0  0  0  0  0  0  0  0  0  0  0  0
    1.8792   -1.1335    0.2966 C   0  0  0  0  0  0  0  0  0  0  0  0
    1.5817    0.8798   -0.6536 C   0  0  0  0  0  0  0  0  0  0  0  0
   -0.7021    1.5580    0.2389 C   0  0  0  0  0  0  0  0  0  0  0  0
   -1.8192   -0.8700   -0.5564 C   0  0  0  0  0  0  0  0  0  0  0  0
    2.5165    0.1639   -0.0197 C   0  0  0  0  0  0  0  0  0  0  0  0
   -2.5132   -0.0887    0.2620 C   0  0  0  0  0  0  0  0  0  0  0  0
   -1.9658    1.2469    0.4918 C   0  0  0  0  0  0  0  0  0  0  0  0
   -0.0544   -1.0068    1.4765 H   0  0  0  0  0  0  0  0  0  0  0  0
    0.0704   -1.0709   -1.7010 H   0  0  0  0  0  0  0  0  0  0  0  0
    2.3312   -1.6579    1.1512 H   0  0  0  0  0  0  0  0  0  0  0  0
    1.9753   -1.7741   -0.6020 H   0  0  0  0  0  0  0  0  0  0  0  0
   -2.2581   -1.8257   -0.8233 H   0  0  0  0  0  0  0  0  0  0  0  0
    1.8283    1.8489   -1.0888 H   0  0  0  0  0  0  0  0  0  0  0  0
   -0.5416    2.5630   -0.1568 H   0  0  0  0  0  0  0  0  0  0  0  0
    3.4053    0.5213    0.5114 H   0  0  0  0  0  0  0  0  0  0  0  0
   -2.6665    2.0447    0.7472 H   0  0  0  0  0  0  0  0  0  0  0  0
   -3.3540   -0.4484    0.8562 H   0  0  0  0  0  0  0  0  0  0  0  0
  1  3  1  0
  1  5  1  0
  1  2  1  0
  1  6  1  0
  2  3  1  0
  2 11  1  0
  2  4  1  0
  3 12  1  0
  3  7  1  0
  4 13  1  0
  4  8  1  0
  4 14  1  0
  5  8  2  0
  5 16  1  0
  6 10  2  0
  6 17  1  0
  7  9  2  0
  7 15  1  0
  8 18  1  0
  9 20  1  0
  9 10  1  0
 10 19  1  0
M  END
