
     RDKit          3D

 30 31  0  0  0  0  0  0  0  0999 V2000
   -0.5431   -0.2283   -0.0502 C   0  0  0  0  0  0  0  0  0  0  0  0
    1.0018   -0.2748   -0.1225 C   0  0  0  0  0  0  0  0  0  0  0  0
   -0.8765   -1.4258    0.8544 C   0  0  0  0  0  0  0  0  0  0  0  0
    1.4563   -0.7778    1.2528 C   0  0  0  0  0  0  0  0  0  0  0  0
    1.6799    1.0552   -0.5360 C   0  0  0  0  0  0  0  0  0  0  0  0
    0.2730   -1.5373    1.8519 C   0  0  0  0  0  0  0  0  0  0  0  0
   -1.1811   -0.3911   -1.4621 C   0  0  0  0  0  0  0  0  0  0  0  0
    3.1672    0.8675   -0.8313 C   0  0  0  0  0  0  0  0  0  0  0  0
   -1.0545    1.0442    0.6199 C   0  0  0  0  0  0  0  0  0  0  0  0
   -2.6521   -0.0722   -1.4562 C   0  0  0  0  0  0  0  0  0  0  0  0
   -2.2759    1.5212    0.3550 C   0  0  0  0  0  0  0  0  0  0  0  0
   -3.1399    0.8696   -0.6448 C   0  0  0  0  0  0  0  0  0  0  0  0
    1.2840   -1.0533   -0.8699 H   0  0  0  0  0  0  0  0  0  0  0  0
    1.5724    1.8200    0.2624 H   0  0  0  0  0  0  0  0  0  0  0  0
    1.1954    1.4542   -1.4517 H   0  0  0  0  0  0  0  0  0  0  0  0
    2.3424   -1.4425    1.1533 H   0  0  0  0  0  0  0  0  0  0  0  0
    1.7237    0.0712    1.9203 H   0  0  0  0  0  0  0  0  0  0  0  0
    0.5343   -2.6034    2.0299 H   0  0  0  0  0  0  0  0  0  0  0  0
   -0.0222   -1.0760    2.8200 H   0  0  0  0  0  0  0  0  0  0  0  0
   -0.9158   -2.3662    0.2604 H   0  0  0  0  0  0  0  0  0  0  0  0
   -1.8535   -1.3105    1.3748 H   0  0  0  0  0  0  0  0  0  0  0  0
   -1.0261   -1.4183   -1.8573 H   0  0  0  0  0  0  0  0  0  0  0  0
   -0.6968    0.3063   -2.1774 H   0  0  0  0  0  0  0  0  0  0  0  0
    3.3094    0.1265   -1.6465 H   0  0  0  0  0  0  0  0  0  0  0  0
    3.7045    0.5223    0.0770 H   0  0  0  0  0  0  0  0  0  0  0  0
    3.6065    1.8353   -1.1529 H   0  0  0  0  0  0  0  0  0  0  0  0
   -0.4747    1.5129    1.4055 H   0  0  0  0  0  0  0  0  0  0  0  0
   -3.3044   -0.5528   -2.1744 H   0  0  0  0  0  0  0  0  0  0  0  0
   -2.6511    2.3744    0.9052 H   0  0  0  0  0  0  0  0  0  0  0  0
   -4.1834    1.1495   -0.7097 H   0  0  0  0  0  0  0  0  0  0  0  0
  1  2  1  0
  1  3  1  0
  1  7  1  0
  1  9  1  0
  2 13  1  0
  2  5  1  0
  2  4  1  0
  3 20  1  0
  3 21  1  0
  3  6  1  0
  4 17  1  0
  4  6  1  0
  4 16  1  0
  5  8  1  0
  5 15  1  0
  5 14  1  0
  6 19  1  0
  6 18  1  0
  7 22  1  0
  7 23  1  0
  7 10  1  0
  8 24  1  0
  8 25  1  0
  8 26  1  0
  9 27  1  0
  9 11  2  0
 10 12  2  0
 10 28  1  0
 11 12  1  0
 11 29  1  0
 12 30  1  0
M  END
