
     RDKit          3D

 21 21  0  0  0  0  0  0  0  0999 V2000
    2.6685    0.4243    0.0152 O   0  0  0  0  0  0  0  0  0  0  0  0
    3.5388   -0.5717   -0.0047 O   0  0  0  0  0  0  0  0  0  0  0  0
   -1.5351   -0.6760   -0.6184 C   0  0  0  0  0  0  0  0  0  0  0  0
   -0.5446   -1.3772    0.2805 C   0  0  0  0  0  0  0  0  0  0  0  0
   -1.8672    0.6718   -0.0655 C   0  0  0  0  0  0  0  0  0  0  0  0
    0.8260   -1.1459   -0.2872 C   0  0  0  0  0  0  0  0  0  0  0  0
   -0.7665    1.6794   -0.1746 C   0  0  0  0  0  0  0  0  0  0  0  0
    1.3006    0.1771    0.1493 C   0  0  0  0  0  0  0  0  0  0  0  0
    0.5325    1.2484    0.3547 C   0  0  0  0  0  0  0  0  0  0  0  0
   -0.7917   -2.4345    0.4469 H   0  0  0  0  0  0  0  0  0  0  0  0
   -0.5840   -0.8737    1.2606 H   0  0  0  0  0  0  0  0  0  0  0  0
   -2.4712   -1.2798   -0.5909 H   0  0  0  0  0  0  0  0  0  0  0  0
   -1.1809   -0.6446   -1.6557 H   0  0  0  0  0  0  0  0  0  0  0  0
   -2.2677    0.5596    0.9586 H   0  0  0  0  0  0  0  0  0  0  0  0
   -2.7190    1.0753   -0.6707 H   0  0  0  0  0  0  0  0  0  0  0  0
    1.5539   -1.9514   -0.0190 H   0  0  0  0  0  0  0  0  0  0  0  0
    0.8148   -1.1426   -1.4071 H   0  0  0  0  0  0  0  0  0  0  0  0
   -1.0971    2.5561    0.4411 H   0  0  0  0  0  0  0  0  0  0  0  0
   -0.7088    2.0788   -1.2189 H   0  0  0  0  0  0  0  0  0  0  0  0
    1.1523    2.0858    0.6846 H   0  0  0  0  0  0  0  0  0  0  0  0
    4.1462   -0.4593    0.7709 H   0  0  0  0  0  0  0  0  0  0  0  0
  1  8  1  0
  1  2  1  0
  2 21  1  0
  3  4  1  0
  3  5  1  0
  3 12  1  0
  3 13  1  0
  4 10  1  0
  4 11  1  0
  4  6  1  0
  5  7  1  0
  5 14  1  0
  5 15  1  0
  6 17  1  0
  6 16  1  0
  6  8  1  0
  7 19  1  0
  7 18  1  0
  7  9  1  0
  8  9  2  0
  9 20  1  0
M  END
