
     RDKit          3D

 18 19  0  0  0  0  0  0  0  0999 V2000
   -0.1614    0.3161   -0.4195 C   0  0  0  0  0  0  0  0  0  0  0  0
    0.3209   -0.9648   -0.2247 C   0  0  0  0  0  0  0  0  0  0  0  0
   -1.6184    0.1737   -0.2951 C   0  0  0  0  0  0  0  0  0  0  0  0
   -1.9042   -1.2642   -0.2070 C   0  0  0  0  0  0  0  0  0  0  0  0
    0.6627    1.4090   -0.1785 C   0  0  0  0  0  0  0  0  0  0  0  0
   -0.7639   -1.8785    0.1052 C   0  0  0  0  0  0  0  0  0  0  0  0
    1.6712   -1.1433   -0.1427 C   0  0  0  0  0  0  0  0  0  0  0  0
    1.9744    1.1871    0.2254 C   0  0  0  0  0  0  0  0  0  0  0  0
    2.5156   -0.0524   -0.0881 C   0  0  0  0  0  0  0  0  0  0  0  0
   -2.4604    1.1924   -0.1388 C   0  0  0  0  0  0  0  0  0  0  0  0
   -2.9082   -1.6856   -0.2348 H   0  0  0  0  0  0  0  0  0  0  0  0
    0.2556    2.3648    0.1141 H   0  0  0  0  0  0  0  0  0  0  0  0
   -0.6991   -2.7772    0.7214 H   0  0  0  0  0  0  0  0  0  0  0  0
    2.5381    1.9576    0.7223 H   0  0  0  0  0  0  0  0  0  0  0  0
    2.1217   -2.1348   -0.0880 H   0  0  0  0  0  0  0  0  0  0  0  0
    3.5876   -0.1327   -0.0315 H   0  0  0  0  0  0  0  0  0  0  0  0
   -2.2393    2.1028   -0.6908 H   0  0  0  0  0  0  0  0  0  0  0  0
   -2.8930    1.3301    0.8512 H   0  0  0  0  0  0  0  0  0  0  0  0
  1  3  1  0
  1  5  2  0
  1  2  1  0
  2  6  1  0
  2  7  2  0
  3  4  1  0
  3 10  2  3
  4 11  1  0
  4  6  2  0
  5  8  1  0
  5 12  1  0
  6 13  1  0
  7  9  1  0
  7 15  1  0
  8  9  2  0
  8 14  1  0
  9 16  1  0
 10 17  1  0
 10 18  1  0
M  END
