
     RDKit          3D

 17 17  0  0  0  0  0  0  0  0999 V2000
   -0.6782    0.0325   -0.3259 C   0  0  0  0  0  0  0  0  0  0  0  0
    0.4156   -0.3286    0.6820 C   0  0  0  0  0  0  0  0  0  0  0  0
   -1.4564   -1.2137    0.0855 C   0  0  0  0  0  0  0  0  0  0  0  0
   -1.4003    1.3420    0.0032 C   0  0  0  0  0  0  0  0  0  0  0  0
    1.7356   -0.6611    0.0393 C   0  0  0  0  0  0  0  0  0  0  0  0
    2.5161    0.3001   -0.4603 C   0  0  0  0  0  0  0  0  0  0  0  0
   -0.3601   -1.5778    1.0750 C   0  0  0  0  0  2  0  0  0  0  0  0
   -0.3484   -0.0122   -1.3888 H   0  0  0  0  0  0  0  0  0  0  0  0
    0.5135    0.3763    1.5374 H   0  0  0  0  0  0  0  0  0  0  0  0
   -2.4205   -1.0063    0.5991 H   0  0  0  0  0  0  0  0  0  0  0  0
   -1.5318   -1.9601   -0.7340 H   0  0  0  0  0  0  0  0  0  0  0  0
   -1.7387    1.3616    1.0619 H   0  0  0  0  0  0  0  0  0  0  0  0
   -0.7138    2.1972   -0.1702 H   0  0  0  0  0  0  0  0  0  0  0  0
   -2.2844    1.4557   -0.6587 H   0  0  0  0  0  0  0  0  0  0  0  0
    2.0722   -1.6932   -0.0099 H   0  0  0  0  0  0  0  0  0  0  0  0
    2.2114    1.3417   -0.4211 H   0  0  0  0  0  0  0  0  0  0  0  0
    3.4682    0.0459   -0.9146 H   0  0  0  0  0  0  0  0  0  0  0  0
  1  2  1  0
  1  8  1  0
  1  4  1  0
  1  3  1  0
  2  7  1  0
  2  5  1  0
  2  9  1  0
  3 11  1  0
  3  7  1  0
  3 10  1  0
  4 12  1  0
  4 13  1  0
  4 14  1  0
  5  6  2  3
  5 15  1  0
  6 16  1  0
  6 17  1  0
M  RAD  1   7   3
M  END
