
     RDKit          3D

 17 17  0  0  0  0  0  0  0  0999 V2000
   -0.8666    0.0273   -0.3216 C   0  0  0  0  0  0  0  0  0  0  0  0
    0.4517   -0.6382    0.0575 C   0  0  0  0  0  0  0  0  0  0  0  0
   -1.5385   -1.2185    0.2189 C   0  0  0  0  0  0  0  0  0  0  0  0
   -1.1597    1.3026    0.4149 C   0  0  0  0  0  0  0  0  0  0  0  0
    1.5732   -0.3500   -0.8559 C   0  0  0  0  0  0  0  0  0  0  0  0
    2.5584    0.4083   -0.3552 C   0  0  0  0  0  0  0  0  0  0  0  0
   -0.2618   -1.9573   -0.1718 C   0  0  0  0  0  2  0  0  0  0  0  0
   -1.0079    0.1162   -1.4089 H   0  0  0  0  0  0  0  0  0  0  0  0
    0.6741   -0.4918    1.1438 H   0  0  0  0  0  0  0  0  0  0  0  0
   -1.6190   -1.1452    1.3149 H   0  0  0  0  0  0  0  0  0  0  0  0
   -2.4397   -1.5225   -0.3332 H   0  0  0  0  0  0  0  0  0  0  0  0
   -0.4833    1.4508    1.2923 H   0  0  0  0  0  0  0  0  0  0  0  0
   -0.8881    2.1313   -0.2875 H   0  0  0  0  0  0  0  0  0  0  0  0
   -2.2031    1.4163    0.7339 H   0  0  0  0  0  0  0  0  0  0  0  0
    1.8756   -1.0817   -1.6107 H   0  0  0  0  0  0  0  0  0  0  0  0
    2.3966    1.4843   -0.4454 H   0  0  0  0  0  0  0  0  0  0  0  0
    2.9381    0.0681    0.6138 H   0  0  0  0  0  0  0  0  0  0  0  0
  1  2  1  0
  1  8  1  0
  1  4  1  0
  1  3  1  0
  2  7  1  0
  2  5  1  0
  2  9  1  0
  3 11  1  0
  3  7  1  0
  3 10  1  0
  4 12  1  0
  4 13  1  0
  4 14  1  0
  5  6  2  3
  5 15  1  0
  6 16  1  0
  6 17  1  0
M  RAD  1   7   3
M  END
