
     RDKit          3D

 20 20  0  0  0  0  0  0  0  0999 V2000
   -1.4208   -1.5282    0.5189 C   0  0  0  0  0  0  0  0  0  0  0  0
    0.2559    0.0656   -0.1425 C   0  0  0  0  0  0  0  0  0  0  0  0
   -0.8204    1.0657   -0.1608 C   0  0  0  0  0  0  0  0  0  0  0  0
   -0.0689   -1.2252   -0.0479 C   0  0  0  0  0  0  0  0  0  0  0  0
   -2.4628   -0.6827   -0.1344 C   0  0  0  0  0  0  0  0  0  0  0  0
   -2.2155    0.6120   -0.2433 C   0  0  0  0  0  0  0  0  0  0  0  0
    1.5070    0.4416   -0.7822 C   0  0  0  0  0  0  0  0  0  0  0  0
   -0.5223    2.3384    0.1067 C   0  0  0  0  0  0  0  0  0  0  0  0
    3.7128   -0.4301    0.3309 C   0  0  0  0  0  0  0  0  0  0  0  0
    2.5784   -0.0909   -0.2391 C   0  0  0  0  0  0  0  0  0  0  0  0
   -1.6562   -2.5992    0.4912 H   0  0  0  0  0  0  0  0  0  0  0  0
   -1.3971   -1.2227    1.5906 H   0  0  0  0  0  0  0  0  0  0  0  0
    0.4383   -1.9742   -0.6596 H   0  0  0  0  0  0  0  0  0  0  0  0
   -3.2965   -1.0988   -0.6843 H   0  0  0  0  0  0  0  0  0  0  0  0
   -3.0008    1.3366   -0.4461 H   0  0  0  0  0  0  0  0  0  0  0  0
    1.6326    0.6616   -1.8210 H   0  0  0  0  0  0  0  0  0  0  0  0
   -1.2759    3.0713   -0.1097 H   0  0  0  0  0  0  0  0  0  0  0  0
    0.1001    2.4753    0.9936 H   0  0  0  0  0  0  0  0  0  0  0  0
    3.8639   -1.4913    0.3624 H   0  0  0  0  0  0  0  0  0  0  0  0
    4.0481    0.2750    1.0767 H   0  0  0  0  0  0  0  0  0  0  0  0
  1 11  1  0
  1 12  1  0
  1  5  1  0
  1  4  1  0
  2  3  1  0
  2  7  1  0
  2  4  2  0
  3  6  1  0
  3  8  2  3
  4 13  1  0
  5 14  1  0
  5  6  2  0
  6 15  1  0
  7 10  2  3
  7 16  1  0
  8 17  1  0
  8 18  1  0
  9 10  2  3
  9 19  1  0
  9 20  1  0
M  END
