
     RDKit          3D

 22 23  0  0  0  0  0  0  0  0999 V2000
   -0.4016    0.8055    0.7768 C   0  0  0  0  0  0  0  0  0  0  0  0
   -0.2876   -0.7421    0.8666 C   0  0  0  0  0  0  0  0  0  0  0  0
    0.9716   -1.1439    0.0941 C   0  0  0  0  0  0  0  0  0  0  0  0
    1.0073    1.3176    0.4443 C   0  0  0  0  0  0  0  0  0  0  0  0
    1.7487    0.1166   -0.0246 C   0  0  0  0  0  0  0  0  0  0  0  0
   -1.4089    1.2896   -0.2443 C   0  0  0  0  0  0  0  0  0  0  0  0
   -1.4926   -1.5006    0.3677 C   0  0  0  0  0  0  0  0  0  0  0  0
   -2.3405    0.4894   -0.7635 C   0  0  0  0  0  0  0  0  0  0  0  0
   -2.4224   -0.9288   -0.3962 C   0  0  0  0  0  0  0  0  0  0  0  0
    2.9928    0.1672   -0.5119 C   0  0  0  0  0  0  0  0  0  0  0  0
   -0.7133    1.2129    1.7641 H   0  0  0  0  0  0  0  0  0  0  0  0
   -0.1408   -1.0070    1.9380 H   0  0  0  0  0  0  0  0  0  0  0  0
    1.5468   -1.9118    0.6563 H   0  0  0  0  0  0  0  0  0  0  0  0
    0.7357   -1.5208   -0.9260 H   0  0  0  0  0  0  0  0  0  0  0  0
    1.0044    2.1041   -0.3429 H   0  0  0  0  0  0  0  0  0  0  0  0
    1.4998    1.7188    1.3568 H   0  0  0  0  0  0  0  0  0  0  0  0
   -1.4237    2.3408   -0.5061 H   0  0  0  0  0  0  0  0  0  0  0  0
   -1.5711   -2.5575    0.5909 H   0  0  0  0  0  0  0  0  0  0  0  0
   -3.2466   -1.5228   -0.7700 H   0  0  0  0  0  0  0  0  0  0  0  0
   -3.0705    0.8966   -1.4514 H   0  0  0  0  0  0  0  0  0  0  0  0
    3.4922   -0.7373   -0.8452 H   0  0  0  0  0  0  0  0  0  0  0  0
    3.5205    1.1134   -0.5808 H   0  0  0  0  0  0  0  0  0  0  0  0
  1 11  1  0
  1  6  1  0
  1  2  1  0
  1  4  1  0
  2  7  1  0
  2  3  1  0
  2 12  1  0
  3 13  1  0
  3 14  1  0
  3  5  1  0
  4 15  1  0
  4  5  1  0
  4 16  1  0
  5 10  2  3
  6  8  2  0
  6 17  1  0
  7 18  1  0
  7  9  2  0
  8 20  1  0
  8  9  1  0
  9 19  1  0
 10 21  1  0
 10 22  1  0
M  END
