
     RDKit          3D

 19 19  0  0  0  0  0  0  0  0999 V2000
   -0.2288   -0.3685    0.2322 C   0  0  0  0  0  0  0  0  0  0  0  0
   -1.4363   -0.5336   -0.6852 C   0  0  0  0  0  0  0  0  0  0  0  0
    0.4779    0.9425   -0.0737 C   0  0  0  0  0  0  0  0  0  0  0  0
    1.0251   -1.0376   -0.2420 C   0  0  0  0  0  0  0  0  0  0  0  0
   -2.5807    0.1364    0.0659 C   0  0  0  0  0  0  0  0  0  0  0  0
    1.7623    0.2033    0.1477 C   0  0  0  0  0  0  0  0  0  0  0  0
    2.9930    0.4963    0.5121 C   0  0  0  0  0  0  0  0  0  0  0  0
   -0.4596   -0.4217    1.3035 H   0  0  0  0  0  0  0  0  0  0  0  0
   -1.2608    0.0698   -1.6058 H   0  0  0  0  0  0  0  0  0  0  0  0
   -1.6453   -1.5973   -0.9087 H   0  0  0  0  0  0  0  0  0  0  0  0
    0.2949    1.7545    0.6509 H   0  0  0  0  0  0  0  0  0  0  0  0
    0.3188    1.3040   -1.1016 H   0  0  0  0  0  0  0  0  0  0  0  0
    1.0110   -1.2567   -1.3194 H   0  0  0  0  0  0  0  0  0  0  0  0
    1.3553   -1.8596    0.4145 H   0  0  0  0  0  0  0  0  0  0  0  0
   -2.6629   -0.3520    1.0493 H   0  0  0  0  0  0  0  0  0  0  0  0
   -2.2360    1.1867    0.2400 H   0  0  0  0  0  0  0  0  0  0  0  0
   -3.5096    0.1577   -0.5180 H   0  0  0  0  0  0  0  0  0  0  0  0
    3.6200   -0.3065    0.8863 H   0  0  0  0  0  0  0  0  0  0  0  0
    3.1617    1.4822    0.9518 H   0  0  0  0  0  0  0  0  0  0  0  0
  1  4  1  0
  1  8  1  0
  1  2  1  0
  1  3  1  0
  2 10  1  0
  2  9  1  0
  2  5  1  0
  3 12  1  0
  3  6  1  0
  3 11  1  0
  4 14  1  0
  4  6  1  0
  4 13  1  0
  5 16  1  0
  5 17  1  0
  5 15  1  0
  6  7  2  3
  7 19  1  0
  7 18  1  0
M  END
