
     RDKit          3D

 14 14  0  0  0  0  0  0  0  0999 V2000
   -0.8067   -0.5008    0.8364 C   0  0  0  0  0  0  0  0  0  0  0  0
   -1.5291    0.7385    0.3220 C   0  0  0  0  0  0  0  0  0  0  0  0
    0.0053   -0.1902   -0.3818 C   0  0  0  0  0  0  0  0  0  0  0  0
   -1.1577    0.0891   -0.9755 C   0  0  0  0  0  0  0  0  0  0  0  0
    1.3742   -0.2819   -0.8249 C   0  0  0  0  0  0  0  0  0  0  0  0
    2.3334    0.0129    0.0395 C   0  0  0  0  0  0  0  0  0  0  0  0
   -0.2641   -0.3743    1.7821 H   0  0  0  0  0  0  0  0  0  0  0  0
   -1.4288   -1.3979    0.7189 H   0  0  0  0  0  0  0  0  0  0  0  0
   -2.6018    0.7878    0.5346 H   0  0  0  0  0  0  0  0  0  0  0  0
   -0.9512    1.6719    0.4047 H   0  0  0  0  0  0  0  0  0  0  0  0
   -1.7006   -0.5819   -1.6443 H   0  0  0  0  0  0  0  0  0  0  0  0
    1.6122   -0.3465   -1.8658 H   0  0  0  0  0  0  0  0  0  0  0  0
    2.5995   -0.6939    0.8033 H   0  0  0  0  0  0  0  0  0  0  0  0
    2.5154    1.0672    0.2509 H   0  0  0  0  0  0  0  0  0  0  0  0
  1  3  1  0
  1  2  1  0
  1  7  1  0
  1  8  1  0
  2  9  1  0
  2 10  1  0
  2  4  1  0
  3  5  1  0
  3  4  2  0
  4 11  1  0
  5  6  2  3
  5 12  1  0
  6 13  1  0
  6 14  1  0
M  END
