
     RDKit          3D

 17 17  0  0  0  0  0  0  0  0999 V2000
   -0.5148   -0.0702   -0.3596 C   0  0  0  0  0  0  0  0  0  0  0  0
    0.2068    1.1020    0.2737 C   0  0  0  0  0  0  0  0  0  0  0  0
   -0.0209   -1.3086    0.3806 C   0  0  0  0  0  0  0  0  0  0  0  0
   -2.0051   -0.0065   -0.1686 C   0  0  0  0  0  0  0  0  0  0  0  0
    1.6511    0.9428   -0.0957 C   0  0  0  0  0  0  0  0  0  0  0  0
    2.1557   -0.2663   -0.2427 C   0  0  0  0  0  0  0  0  0  0  0  0
    1.4198   -1.5265    0.0175 C   0  0  0  0  0  2  0  0  0  0  0  0
   -0.2009   -0.1206   -1.4128 H   0  0  0  0  0  0  0  0  0  0  0  0
    0.1606    1.0135    1.3732 H   0  0  0  0  0  0  0  0  0  0  0  0
   -0.1734    2.0791   -0.0925 H   0  0  0  0  0  0  0  0  0  0  0  0
   -0.6867   -2.1415    0.0392 H   0  0  0  0  0  0  0  0  0  0  0  0
   -0.1607   -1.0762    1.4607 H   0  0  0  0  0  0  0  0  0  0  0  0
   -2.4823   -0.3358   -1.1121 H   0  0  0  0  0  0  0  0  0  0  0  0
   -2.3263    0.9971    0.1644 H   0  0  0  0  0  0  0  0  0  0  0  0
   -2.3513   -0.7101    0.6307 H   0  0  0  0  0  0  0  0  0  0  0  0
    2.1844    1.7912   -0.5273 H   0  0  0  0  0  0  0  0  0  0  0  0
    3.1441   -0.3635   -0.6948 H   0  0  0  0  0  0  0  0  0  0  0  0
  1  4  1  0
  1  8  1  0
  1  3  1  0
  1  2  1  0
  2  5  1  0
  2 10  1  0
  2  9  1  0
  3 12  1  0
  3  7  1  0
  3 11  1  0
  4 13  1  0
  4 15  1  0
  4 14  1  0
  5  6  2  0
  5 16  1  0
  6 17  1  0
  6  7  1  0
M  RAD  1   7   3
M  END
