
     RDKit          3D

 19 19  0  0  0  0  0  0  0  0999 V2000
   -0.0693    0.0323   -0.5290 C   0  0  0  0  0  0  0  0  0  0  0  0
   -0.9943   -0.6265    0.5111 C   0  0  0  0  0  0  0  0  0  0  0  0
   -0.1683    1.4655   -0.6172 C   0  0  0  0  0  0  0  0  0  0  0  0
   -2.4349   -0.6932    0.0106 C   0  0  0  0  0  0  0  0  0  0  0  0
    2.4044   -0.7618    0.4009 C   0  0  0  0  0  0  0  0  0  0  0  0
    1.3314    0.1845   -0.0218 C   0  0  0  0  0  0  0  0  0  0  0  0
    1.2356    1.5729   -0.1185 C   0  0  0  0  0  0  0  0  0  0  0  0
   -0.0883   -0.4787   -1.5182 H   0  0  0  0  0  0  0  0  0  0  0  0
   -0.9642   -0.0747    1.4772 H   0  0  0  0  0  0  0  0  0  0  0  0
   -0.6403   -1.6629    0.7014 H   0  0  0  0  0  0  0  0  0  0  0  0
   -0.8857    1.9412    0.0881 H   0  0  0  0  0  0  0  0  0  0  0  0
   -0.2603    1.8361   -1.6617 H   0  0  0  0  0  0  0  0  0  0  0  0
   -2.4870   -1.2705   -0.9370 H   0  0  0  0  0  0  0  0  0  0  0  0
   -3.0687   -1.1983    0.7696 H   0  0  0  0  0  0  0  0  0  0  0  0
   -2.8349    0.3285   -0.1609 H   0  0  0  0  0  0  0  0  0  0  0  0
    2.0423   -1.8062    0.3039 H   0  0  0  0  0  0  0  0  0  0  0  0
    2.6767   -0.5645    1.4582 H   0  0  0  0  0  0  0  0  0  0  0  0
    3.2970   -0.6219   -0.2430 H   0  0  0  0  0  0  0  0  0  0  0  0
    1.9087    2.3983    0.0862 H   0  0  0  0  0  0  0  0  0  0  0  0
  1  2  1  0
  1  8  1  0
  1  6  1  0
  1  3  1  0
  2  4  1  0
  2  9  1  0
  2 10  1  0
  3 12  1  0
  3  7  1  0
  3 11  1  0
  4 15  1  0
  4 13  1  0
  4 14  1  0
  5 17  1  0
  5 18  1  0
  5  6  1  0
  5 16  1  0
  6  7  2  0
  7 19  1  0
M  END
