
     RDKit          3D

 17 17  0  0  0  0  0  0  0  0999 V2000
   -0.8304   -0.7112   -0.1846 C   0  0  0  0  0  0  0  0  0  0  0  0
   -1.9390    0.1405   -0.7411 C   0  0  0  0  0  0  0  0  0  0  0  0
    2.7684    0.0907    0.1802 C   0  0  0  0  0  0  0  0  0  0  0  0
    0.3916    0.0890    0.0049 C   0  0  0  0  0  0  0  0  0  0  0  0
   -1.7160   -0.6873    1.0163 C   0  0  0  0  0  0  0  0  0  0  0  0
   -2.0351    0.5609    0.6797 C   0  0  0  0  0  0  0  0  0  0  0  0
    1.5378   -0.1645   -0.6393 C   0  0  0  0  0  0  0  0  0  0  0  0
   -0.6971   -1.7034   -0.6385 H   0  0  0  0  0  0  0  0  0  0  0  0
   -2.8375   -0.3937   -1.0837 H   0  0  0  0  0  0  0  0  0  0  0  0
   -1.5177    0.9033   -1.4188 H   0  0  0  0  0  0  0  0  0  0  0  0
    2.7272    1.1699    0.4357 H   0  0  0  0  0  0  0  0  0  0  0  0
    3.6354   -0.1959   -0.4264 H   0  0  0  0  0  0  0  0  0  0  0  0
    2.6324   -0.5372    1.0929 H   0  0  0  0  0  0  0  0  0  0  0  0
    1.5758    0.2284   -1.6598 H   0  0  0  0  0  0  0  0  0  0  0  0
   -1.9467    1.4742    1.2745 H   0  0  0  0  0  0  0  0  0  0  0  0
    0.2701    1.1306    0.3148 H   0  0  0  0  0  0  0  0  0  0  0  0
   -2.0191   -1.3943    1.7931 H   0  0  0  0  0  0  0  0  0  0  0  0
  1  8  1  0
  1  2  1  0
  1  5  1  0
  1  4  1  0
  2  9  1  0
  2  6  1  0
  2 10  1  0
  3  7  1  0
  3 12  1  0
  3 11  1  0
  3 13  1  0
  4  7  2  3
  4 16  1  0
  5 17  1  0
  5  6  2  0
  6 15  1  0
  7 14  1  0
M  END
