
     RDKit          3D

 17 17  0  0  0  0  0  0  0  0999 V2000
    1.4764    0.4039    0.1720 C   0  0  0  0  0  0  0  0  0  0  0  0
   -2.1773   -0.6995   -0.4604 C   0  0  0  0  0  0  0  0  0  0  0  0
    2.8466   -0.2267   -0.0542 C   0  0  0  0  0  0  0  0  0  0  0  0
   -0.8987   -0.1442   -0.1640 C   0  0  0  0  0  0  0  0  0  0  0  0
    0.3745   -0.5100   -0.2766 C   0  0  0  0  0  0  0  0  0  0  0  0
   -2.8798    0.4706    0.0314 C   0  0  0  0  0  0  0  0  0  0  0  0
   -1.6716    1.0416    0.3319 C   0  0  0  0  0  0  0  0  0  0  0  0
    1.3541    0.6262    1.2543 H   0  0  0  0  0  0  0  0  0  0  0  0
    1.4186    1.3582   -0.3952 H   0  0  0  0  0  0  0  0  0  0  0  0
   -2.3949   -1.6059    0.1463 H   0  0  0  0  0  0  0  0  0  0  0  0
   -2.3286   -0.8525   -1.5515 H   0  0  0  0  0  0  0  0  0  0  0  0
    3.0001   -0.4377   -1.1342 H   0  0  0  0  0  0  0  0  0  0  0  0
    3.6386    0.4728    0.2871 H   0  0  0  0  0  0  0  0  0  0  0  0
    2.9354   -1.1726    0.5219 H   0  0  0  0  0  0  0  0  0  0  0  0
   -3.9159    0.7674    0.1225 H   0  0  0  0  0  0  0  0  0  0  0  0
    0.6034   -1.4814   -0.6987 H   0  0  0  0  0  0  0  0  0  0  0  0
   -1.3809    1.9898    0.7640 H   0  0  0  0  0  0  0  0  0  0  0  0
  1  8  1  0
  1  3  1  0
  1  9  1  0
  1  5  1  0
  2 11  1  0
  2  6  1  0
  2  4  1  0
  2 10  1  0
  3 14  1  0
  3 13  1  0
  3 12  1  0
  4  5  2  3
  4  7  1  0
  5 16  1  0
  6 15  1  0
  6  7  2  0
  7 17  1  0
M  END
