
     RDKit          3D

 22 22  0  0  0  0  0  0  0  0999 V2000
   -0.9635    0.6373   -0.7161 C   0  0  0  0  0  0  0  0  0  0  0  0
   -2.4631    0.9476   -0.5603 C   0  0  0  0  0  0  0  0  0  0  0  0
   -0.4717   -0.3888    0.2908 C   0  0  0  0  0  0  0  0  0  0  0  0
   -3.2708   -0.2913   -0.2964 C   0  0  0  0  0  0  0  0  0  0  0  0
    0.9552   -0.4592    0.6932 C   0  0  0  0  0  0  0  0  0  0  0  0
   -1.3268   -1.3046    0.7774 C   0  0  0  0  0  0  0  0  0  0  0  0
   -2.7451   -1.3146    0.3788 C   0  0  0  0  0  0  0  0  0  0  0  0
    1.9371    0.1617    0.0295 C   0  0  0  0  0  0  0  0  0  0  0  0
    3.3364    0.0478    0.4732 C   0  0  0  0  0  0  0  0  0  0  0  0
    4.3196    0.6527   -0.1871 C   0  0  0  0  0  0  0  0  0  0  0  0
   -0.4083    1.5918   -0.5943 H   0  0  0  0  0  0  0  0  0  0  0  0
   -0.7702    0.2491   -1.7394 H   0  0  0  0  0  0  0  0  0  0  0  0
   -2.6078    1.6461    0.2921 H   0  0  0  0  0  0  0  0  0  0  0  0
   -2.8367    1.4452   -1.4805 H   0  0  0  0  0  0  0  0  0  0  0  0
   -4.3154   -0.3161   -0.5805 H   0  0  0  0  0  0  0  0  0  0  0  0
    1.7207    0.7438   -0.8575 H   0  0  0  0  0  0  0  0  0  0  0  0
   -3.3639   -2.1646    0.6361 H   0  0  0  0  0  0  0  0  0  0  0  0
    1.2128   -1.0692    1.5528 H   0  0  0  0  0  0  0  0  0  0  0  0
   -0.9793   -2.0807    1.4491 H   0  0  0  0  0  0  0  0  0  0  0  0
    3.5790   -0.5367    1.3531 H   0  0  0  0  0  0  0  0  0  0  0  0
    4.1203    1.2466   -1.0707 H   0  0  0  0  0  0  0  0  0  0  0  0
    5.3413    0.5561    0.1567 H   0  0  0  0  0  0  0  0  0  0  0  0
  1 11  1  0
  1  2  1  0
  1  3  1  0
  1 12  1  0
  2  4  1  0
  2 14  1  0
  2 13  1  0
  3  5  1  0
  3  6  2  0
  4 15  1  0
  4  7  2  0
  5 18  1  0
  5  8  2  3
  6  7  1  0
  6 19  1  0
  7 17  1  0
  8 16  1  0
  8  9  1  0
  9 10  2  3
  9 20  1  0
 10 21  1  0
 10 22  1  0
M  END
