
     RDKit          3D

 19 20  0  0  0  0  0  0  0  0999 V2000
    1.3902   -2.1763   -0.0139 O   0  0  0  0  0  0  0  0  0  0  0  0
    2.2718   -1.3834   -0.6041 O   0  0  0  0  0  0  0  0  0  0  0  0
    0.5456   -1.1967    0.5329 C   0  0  0  0  0  0  0  0  0  0  0  0
   -0.7067   -1.1179   -0.2713 C   0  0  0  0  0  0  0  0  0  0  0  0
    1.6579   -0.3208    0.0717 C   0  0  0  0  0  0  0  0  0  0  0  0
   -1.6496   -0.0279    0.1290 C   0  0  0  0  0  0  0  0  0  0  0  0
   -0.9775    1.2757    0.4638 C   0  0  0  0  0  0  0  0  0  0  0  0
    1.1771    0.7766   -0.8312 C   0  0  0  0  0  0  0  0  0  0  0  0
    0.1056    1.5256   -0.5378 C   0  0  0  0  0  0  0  0  0  0  0  0
    0.4253   -1.3696    1.6079 H   0  0  0  0  0  0  0  0  0  0  0  0
   -2.3394    0.1304   -0.7391 H   0  0  0  0  0  0  0  0  0  0  0  0
   -2.2237   -0.3645    1.0292 H   0  0  0  0  0  0  0  0  0  0  0  0
   -0.4517   -1.0994   -1.3544 H   0  0  0  0  0  0  0  0  0  0  0  0
   -1.2462   -2.0864   -0.1085 H   0  0  0  0  0  0  0  0  0  0  0  0
    2.2208    0.1030    0.9142 H   0  0  0  0  0  0  0  0  0  0  0  0
   -1.7190    2.0976    0.3712 H   0  0  0  0  0  0  0  0  0  0  0  0
   -0.5971    1.3185    1.5057 H   0  0  0  0  0  0  0  0  0  0  0  0
    0.1030    2.5122   -1.0088 H   0  0  0  0  0  0  0  0  0  0  0  0
    2.0134    1.4032   -1.1567 H   0  0  0  0  0  0  0  0  0  0  0  0
  1  3  1  0
  1  2  1  0
  2  5  1  0
  3 10  1  0
  3  5  1  0
  3  4  1  0
  4  6  1  0
  4 13  1  0
  4 14  1  0
  5 15  1  0
  5  8  1  0
  6 12  1  0
  6  7  1  0
  6 11  1  0
  7 16  1  0
  7  9  1  0
  7 17  1  0
  8 19  1  0
  8  9  2  0
  9 18  1  0
M  END
