
     RDKit          3D

 17 17  0  0  0  0  0  0  0  0999 V2000
   -0.5700   -0.3698   -0.7369 C   0  0  0  0  0  0  0  0  0  0  0  0
   -2.8309    0.7670    0.5511 C   0  0  0  0  0  0  0  0  0  0  0  0
    3.0552    0.3576    0.2375 C   0  0  0  0  0  0  0  0  0  0  0  0
   -1.6574   -0.0739    0.1451 C   0  0  0  0  0  0  0  0  0  0  0  0
   -1.4264   -1.4864   -0.2154 C   0  0  0  0  0  0  0  0  0  0  0  0
    0.8406   -0.4814   -0.3263 C   0  0  0  0  0  0  0  0  0  0  0  0
    1.5658    0.4888    0.2018 C   0  0  0  0  0  0  0  0  0  0  0  0
   -0.7203   -0.2271   -1.8373 H   0  0  0  0  0  0  0  0  0  0  0  0
    3.4022   -0.1612    1.1666 H   0  0  0  0  0  0  0  0  0  0  0  0
    3.5781    1.3014    0.0435 H   0  0  0  0  0  0  0  0  0  0  0  0
    3.3448   -0.3282   -0.5996 H   0  0  0  0  0  0  0  0  0  0  0  0
   -2.8322    0.9884    1.6326 H   0  0  0  0  0  0  0  0  0  0  0  0
   -3.8016    0.2812    0.2939 H   0  0  0  0  0  0  0  0  0  0  0  0
   -2.8119    1.7000   -0.0461 H   0  0  0  0  0  0  0  0  0  0  0  0
   -1.5335   -2.4355    0.3228 H   0  0  0  0  0  0  0  0  0  0  0  0
    1.3258   -1.4398   -0.5419 H   0  0  0  0  0  0  0  0  0  0  0  0
    1.0716    1.1189    0.9381 H   0  0  0  0  0  0  0  0  0  0  0  0
  1  8  1  0
  1  4  1  0
  1  6  1  0
  1  5  1  0
  2 14  1  0
  2  4  1  0
  2 12  1  0
  2 13  1  0
  3 11  1  0
  3  7  1  0
  3 10  1  0
  3  9  1  0
  4  5  2  0
  5 15  1  0
  6  7  2  3
  6 16  1  0
  7 17  1  0
M  END
