
     RDKit          3D

 17 18  0  0  0  0  0  0  0  0999 V2000
   -0.0363    0.0129   -1.0928 C   0  0  0  0  0  0  0  0  0  0  0  0
   -1.2683   -0.5113   -0.3971 C   0  0  0  0  0  0  0  0  0  0  0  0
    1.1512   -0.6935   -0.4801 C   0  0  0  0  0  0  0  0  0  0  0  0
   -1.2668    0.2090    0.9490 C   0  0  0  0  0  0  0  0  0  0  0  0
    1.3994    0.0805    0.8131 C   0  0  0  0  0  0  0  0  0  0  0  0
    0.0979    0.8630    0.8395 C   0  0  0  0  0  0  0  0  0  0  0  0
    0.0703    1.3477   -0.4157 C   0  0  0  0  0  0  0  0  0  0  0  0
   -0.0686    0.0484   -2.1647 H   0  0  0  0  0  0  0  0  0  0  0  0
   -1.1895   -1.6191   -0.2499 H   0  0  0  0  0  0  0  0  0  0  0  0
   -2.1870   -0.2788   -0.9844 H   0  0  0  0  0  0  0  0  0  0  0  0
    2.0352   -0.7196   -1.1314 H   0  0  0  0  0  0  0  0  0  0  0  0
    0.8250   -1.7125   -0.1499 H   0  0  0  0  0  0  0  0  0  0  0  0
   -2.0732    0.9381    1.0522 H   0  0  0  0  0  0  0  0  0  0  0  0
   -1.3439   -0.4771    1.7994 H   0  0  0  0  0  0  0  0  0  0  0  0
    2.2748    0.7319    0.7635 H   0  0  0  0  0  0  0  0  0  0  0  0
    1.5207   -0.5682    1.6848 H   0  0  0  0  0  0  0  0  0  0  0  0
    0.0592    2.3484   -0.8352 H   0  0  0  0  0  0  0  0  0  0  0  0
  1  7  1  0
  1  8  1  0
  1  2  1  0
  1  3  1  0
  2  9  1  0
  2 10  1  0
  2  4  1  0
  3 12  1  0
  3 11  1  0
  3  5  1  0
  4 13  1  0
  4 14  1  0
  4  6  1  0
  5 16  1  0
  5 15  1  0
  5  6  1  0
  6  7  2  0
  7 17  1  0
M  END
