
     RDKit          3D

 17 18  0  0  0  0  0  0  0  0999 V2000
    0.0401   -0.0135   -1.0909 C   0  0  0  0  0  0  0  0  0  0  0  0
   -1.2930   -0.3904   -0.4146 C   0  0  0  0  0  0  0  0  0  0  0  0
    1.1916   -0.7899   -0.4351 C   0  0  0  0  0  0  0  0  0  0  0  0
   -1.1644    0.3591    0.9196 C   0  0  0  0  0  0  0  0  0  0  0  0
    1.3042   -0.0585    0.9045 C   0  0  0  0  0  0  0  0  0  0  0  0
    0.2075    0.9647    0.7534 C   0  0  0  0  0  0  0  0  0  0  0  0
    0.2566    1.3405   -0.5199 C   0  0  0  0  0  0  0  0  0  0  0  0
    0.0284   -0.0563   -2.2010 H   0  0  0  0  0  0  0  0  0  0  0  0
   -1.3997   -1.4877   -0.2699 H   0  0  0  0  0  0  0  0  0  0  0  0
   -2.1532   -0.0017   -1.0032 H   0  0  0  0  0  0  0  0  0  0  0  0
    2.1266   -0.6755   -1.0271 H   0  0  0  0  0  0  0  0  0  0  0  0
    0.9557   -1.8689   -0.3056 H   0  0  0  0  0  0  0  0  0  0  0  0
   -1.9399    1.1523    1.0117 H   0  0  0  0  0  0  0  0  0  0  0  0
   -1.2202   -0.3280    1.7921 H   0  0  0  0  0  0  0  0  0  0  0  0
    2.2945    0.4392    1.0067 H   0  0  0  0  0  0  0  0  0  0  0  0
    1.1324   -0.7385    1.7675 H   0  0  0  0  0  0  0  0  0  0  0  0
   -0.3673    2.1532   -0.8883 H   0  0  0  0  0  0  0  0  0  0  0  0
  1  7  1  0
  1  8  1  0
  1  2  1  0
  1  3  1  0
  2  9  1  0
  2 10  1  0
  2  4  1  0
  3 12  1  0
  3 11  1  0
  3  5  1  0
  4 13  1  0
  4 14  1  0
  4  6  1  0
  5 16  1  0
  5 15  1  0
  5  6  1  0
  6  7  2  0
  7 17  1  0
M  END
