
     RDKit          3D

 17 17  0  0  0  0  0  0  0  0999 V2000
    1.1857    0.3654    0.5341 C   0  0  0  0  0  0  0  0  0  0  0  0
    2.0697   -0.8179    0.2586 C   0  0  0  0  0  0  0  0  0  0  0  0
   -2.5647   -0.1851    0.0869 C   0  0  0  0  0  0  0  0  0  0  0  0
   -0.1890    0.1009    0.0191 C   0  0  0  0  0  0  0  0  0  0  0  0
    1.1280    1.3905   -0.5311 C   0  0  0  0  0  0  0  0  0  0  0  0
   -1.1870   -0.6260    0.4516 C   0  0  0  0  0  0  0  0  0  0  0  0
    0.1282    0.8280   -1.2130 C   0  0  0  0  0  0  0  0  0  0  0  0
    1.2326    0.7357    1.5712 H   0  0  0  0  0  0  0  0  0  0  0  0
    3.0933   -0.5585   -0.0446 H   0  0  0  0  0  0  0  0  0  0  0  0
    2.1325   -1.3938    1.2165 H   0  0  0  0  0  0  0  0  0  0  0  0
    1.6405   -1.4707   -0.5333 H   0  0  0  0  0  0  0  0  0  0  0  0
   -3.2825   -1.0182    0.1680 H   0  0  0  0  0  0  0  0  0  0  0  0
   -2.8257    0.6712    0.7410 H   0  0  0  0  0  0  0  0  0  0  0  0
   -2.5067    0.1129   -0.9906 H   0  0  0  0  0  0  0  0  0  0  0  0
    1.3732    2.4535   -0.4757 H   0  0  0  0  0  0  0  0  0  0  0  0
   -1.0048   -1.5971    0.8762 H   0  0  0  0  0  0  0  0  0  0  0  0
   -0.4234    1.0092   -2.1350 H   0  0  0  0  0  0  0  0  0  0  0  0
  1  2  1  0
  1  8  1  0
  1  5  1  0
  1  4  1  0
  2  9  1  0
  2 10  1  0
  2 11  1  0
  3 14  1  0
  3 12  1  0
  3 13  1  0
  3  6  1  0
  4  7  1  0
  4  6  2  3
  5 15  1  0
  5  7  2  0
  6 16  1  0
  7 17  1  0
M  END
