
     RDKit          3D

 13 13  0  0  0  0  0  0  0  0999 V2000
    0.2066    0.1053   -0.5454 C   0  0  0  0  0  0  0  0  0  0  0  0
   -0.6969    1.0884   -0.0004 C   0  0  0  0  0  0  0  0  0  0  0  0
   -0.4757   -1.1786   -0.3332 C   0  0  0  0  0  0  0  0  0  0  0  0
   -1.8741    0.5177    0.2720 C   0  0  0  0  0  0  0  0  0  0  0  0
   -1.7303   -0.9259    0.0436 C   0  0  0  0  0  0  0  0  0  0  0  0
    2.7328    0.4439    0.0718 C   0  0  0  0  0  0  0  0  0  0  0  0
    1.4825    0.3583   -0.3390 C   0  0  0  0  0  0  0  0  0  0  0  0
   -0.6399    2.1609   -0.1959 H   0  0  0  0  0  0  0  0  0  0  0  0
   -2.7942    0.9881    0.5912 H   0  0  0  0  0  0  0  0  0  0  0  0
   -2.3709   -1.6928    0.4823 H   0  0  0  0  0  0  0  0  0  0  0  0
   -0.0711   -2.0883   -0.7697 H   0  0  0  0  0  0  0  0  0  0  0  0
    3.2849   -0.3313   -0.4146 H   0  0  0  0  0  0  0  0  0  0  0  0
    2.9463    0.5542    1.1374 H   0  0  0  0  0  0  0  0  0  0  0  0
  1  7  2  3
  1  3  1  0
  1  2  1  0
  2  4  2  0
  2  8  1  0
  3  5  2  0
  3 11  1  0
  4  5  1  0
  4  9  1  0
  5 10  1  0
  6  7  2  3
  6 12  1  0
  6 13  1  0
M  END
