
     RDKit          3D

 19 20  0  0  0  0  0  0  0  0999 V2000
   -0.2307   -0.5911    0.3594 C   0  0  0  0  0  0  0  0  0  0  0  0
   -1.5983   -0.9018   -0.1783 C   0  0  0  0  0  0  0  0  0  0  0  0
    0.8368   -1.2111   -0.5043 C   0  0  0  0  0  0  0  0  0  0  0  0
   -0.1592    0.8886    0.1404 C   0  0  0  0  0  0  0  0  0  0  0  0
   -2.3708    0.3420    0.1186 C   0  0  0  0  0  0  0  0  0  0  0  0
    2.1722   -0.6030   -0.2366 C   0  0  0  0  0  0  0  0  0  0  0  0
   -1.5398    1.3826    0.0539 C   0  0  0  0  0  0  0  0  0  0  0  0
    1.0173    1.5104    0.2228 C   0  0  0  0  0  0  0  0  0  0  0  0
    2.1828    0.6482    0.2164 C   0  0  0  0  0  0  0  0  0  0  0  0
   -0.1157   -0.8066    1.4312 H   0  0  0  0  0  0  0  0  0  0  0  0
   -1.5022   -0.9947   -1.2883 H   0  0  0  0  0  0  0  0  0  0  0  0
   -2.0634   -1.7951    0.2863 H   0  0  0  0  0  0  0  0  0  0  0  0
    0.5605   -0.9665   -1.5608 H   0  0  0  0  0  0  0  0  0  0  0  0
    0.8763   -2.3211   -0.3754 H   0  0  0  0  0  0  0  0  0  0  0  0
   -3.4447    0.3897    0.3085 H   0  0  0  0  0  0  0  0  0  0  0  0
    3.0044   -1.0311   -0.7959 H   0  0  0  0  0  0  0  0  0  0  0  0
    1.0235    2.5460   -0.1238 H   0  0  0  0  0  0  0  0  0  0  0  0
   -1.8059    2.3783    0.4109 H   0  0  0  0  0  0  0  0  0  0  0  0
    3.1569    1.1364    0.2481 H   0  0  0  0  0  0  0  0  0  0  0  0
  1  4  1  0
  1  2  1  0
  1  3  1  0
  1 10  1  0
  2  5  1  0
  2 11  1  0
  2 12  1  0
  3  6  1  0
  3 13  1  0
  3 14  1  0
  4  8  2  0
  4  7  1  0
  5  7  2  0
  5 15  1  0
  6 16  1  0
  6  9  2  0
  7 18  1  0
  8  9  1  0
  8 17  1  0
  9 19  1  0
M  END
