
     RDKit          3D

 19 19  0  0  0  0  0  0  0  0999 V2000
   -2.2705   -0.3563    0.8680 C   0  0  0  0  0  0  0  0  0  0  0  0
   -1.4841   -0.8127   -0.3569 C   0  0  0  0  0  0  0  0  0  0  0  0
   -1.9632    1.0399    0.3361 C   0  0  0  0  0  0  0  0  0  0  0  0
    1.5804   -0.3655   -0.3706 C   0  0  0  0  0  0  0  0  0  0  0  0
    3.0068    0.0574   -0.2281 C   0  0  0  0  0  0  0  0  0  0  0  0
   -0.6855    0.4484   -0.1849 C   0  0  0  0  0  0  0  0  0  0  0  0
    0.6075    0.6692    0.0854 C   0  0  0  0  0  0  0  0  0  0  0  0
   -1.7147   -0.5483    1.7975 H   0  0  0  0  0  0  0  0  0  0  0  0
   -3.3297   -0.6483    0.8421 H   0  0  0  0  0  0  0  0  0  0  0  0
   -1.8401    1.8063    1.1170 H   0  0  0  0  0  0  0  0  0  0  0  0
   -2.0544   -0.8117   -1.2962 H   0  0  0  0  0  0  0  0  0  0  0  0
   -0.8941   -1.7432   -0.1611 H   0  0  0  0  0  0  0  0  0  0  0  0
   -2.6612    1.3144   -0.4945 H   0  0  0  0  0  0  0  0  0  0  0  0
    1.3805   -1.2795    0.2321 H   0  0  0  0  0  0  0  0  0  0  0  0
    1.3022   -0.6073   -1.4095 H   0  0  0  0  0  0  0  0  0  0  0  0
    3.6297   -0.5293   -0.9506 H   0  0  0  0  0  0  0  0  0  0  0  0
    3.3356   -0.2513    0.7959 H   0  0  0  0  0  0  0  0  0  0  0  0
    3.1549    1.1389   -0.4099 H   0  0  0  0  0  0  0  0  0  0  0  0
    0.9001    1.4789    0.7599 H   0  0  0  0  0  0  0  0  0  0  0  0
  1  3  1  0
  1  2  1  0
  1  8  1  0
  1  9  1  0
  2  6  1  0
  2 11  1  0
  2 12  1  0
  3 13  1  0
  3 10  1  0
  3  6  1  0
  4  5  1  0
  4  7  1  0
  4 15  1  0
  4 14  1  0
  5 17  1  0
  5 16  1  0
  5 18  1  0
  6  7  2  3
  7 19  1  0
M  END
