
     RDKit          3D

 19 20  0  0  0  0  0  0  0  0999 V2000
   -0.4765    0.3907   -0.8417 C   0  0  0  0  0  0  0  0  0  0  0  0
    0.8166    0.3872   -0.0861 C   0  0  0  0  0  0  0  0  0  0  0  0
    0.1127   -0.6767    0.7471 C   0  0  0  0  0  0  0  0  0  0  0  0
   -0.5657   -1.0737   -0.5290 C   0  0  0  0  0  0  0  0  0  0  0  0
   -1.4288    0.9545    0.2033 C   0  0  0  0  0  0  0  0  0  0  0  0
   -0.9499    0.1434    1.4101 C   0  0  0  0  0  0  0  0  0  0  0  0
    2.0347   -0.0766   -0.8233 C   0  0  0  0  0  0  0  0  0  0  0  0
   -0.5339    0.7429   -1.8416 H   0  0  0  0  0  0  0  0  0  0  0  0
    0.9799    1.2632    0.5764 H   0  0  0  0  0  0  0  0  0  0  0  0
    0.6994   -1.3726    1.2968 H   0  0  0  0  0  0  0  0  0  0  0  0
   -1.2420    2.0412    0.3821 H   0  0  0  0  0  0  0  0  0  0  0  0
   -2.4829    0.7504   -0.0210 H   0  0  0  0  0  0  0  0  0  0  0  0
   -0.5646    0.7916    2.2092 H   0  0  0  0  0  0  0  0  0  0  0  0
   -1.7277   -0.5292    1.7934 H   0  0  0  0  0  0  0  0  0  0  0  0
   -1.6425   -1.3316   -0.3786 H   0  0  0  0  0  0  0  0  0  0  0  0
   -0.0439   -1.7678   -1.1933 H   0  0  0  0  0  0  0  0  0  0  0  0
    2.2389    0.5192   -1.7229 H   0  0  0  0  0  0  0  0  0  0  0  0
    1.8894   -1.1356   -1.0816 H   0  0  0  0  0  0  0  0  0  0  0  0
    2.8866   -0.0205   -0.0995 H   0  0  0  0  0  0  0  0  0  0  0  0
  1  8  1  0
  1  5  1  0
  1  4  1  0
  1  2  1  0
  2  9  1  0
  2  7  1  0
  2  3  1  0
  3 10  1  0
  3  6  1  0
  3  4  1  0
  4 16  1  0
  4 15  1  0
  5 12  1  0
  5 11  1  0
  5  6  1  0
  6 14  1  0
  6 13  1  0
  7 18  1  0
  7 17  1  0
  7 19  1  0
M  END
