
     RDKit          3D

 22 22  0  0  0  0  0  0  0  0999 V2000
    0.5075   -1.3651   -0.2183 C   0  0  0  0  0  0  0  0  0  0  0  0
    1.3086   -0.4672    0.4547 C   0  0  0  0  0  0  0  0  0  0  0  0
   -0.4975   -1.4395    0.8627 C   0  0  0  0  0  0  0  0  0  0  0  0
    1.5449    0.3798   -0.7226 C   0  0  0  0  0  0  0  0  0  0  0  0
   -1.4774   -0.7951    0.5180 C   0  0  0  0  0  0  0  0  0  0  0  0
    0.8771    1.3942   -0.5786 C   0  0  0  0  0  0  0  0  0  0  0  0
   -1.3278   -0.3274   -0.9109 C   0  0  0  0  0  0  0  0  0  0  0  0
   -1.0582    0.7728   -0.8654 C   0  0  0  0  0  0  0  0  0  0  0  0
   -0.8748    1.1678    0.5808 C   0  0  0  0  0  0  0  0  0  0  0  0
    0.2120    1.4352    0.7774 C   0  0  0  0  0  0  0  0  0  0  0  0
    0.9114   -2.4019   -0.1107 H   0  0  0  0  0  0  0  0  0  0  0  0
    0.2930   -1.4606   -1.2344 H   0  0  0  0  0  0  0  0  0  0  0  0
    1.2639   -0.1288    1.4438 H   0  0  0  0  0  0  0  0  0  0  0  0
    2.3566   -0.8485    0.5534 H   0  0  0  0  0  0  0  0  0  0  0  0
   -0.2967   -1.8830    1.8326 H   0  0  0  0  0  0  0  0  0  0  0  0
    2.1004    0.0966   -1.5915 H   0  0  0  0  0  0  0  0  0  0  0  0
   -2.0924   -0.6703   -1.6550 H   0  0  0  0  0  0  0  0  0  0  0  0
   -2.3970   -1.3253    0.8551 H   0  0  0  0  0  0  0  0  0  0  0  0
   -1.6999    1.4050   -1.5354 H   0  0  0  0  0  0  0  0  0  0  0  0
    1.4685    2.2614   -0.9541 H   0  0  0  0  0  0  0  0  0  0  0  0
   -1.5819    1.9115    1.0403 H   0  0  0  0  0  0  0  0  0  0  0  0
    0.4599    2.2885    1.4580 H   0  0  0  0  0  0  0  0  0  0  0  0
  1  2  1  0
  1 11  1  0
  1 12  1  0
  1  3  1  0
  2 13  1  0
  2 14  1  0
  2  4  1  0
  3 15  1  0
  3  5  2  0
  4  6  2  0
  4 16  1  0
  5 18  1  0
  5  7  1  0
  6 10  1  0
  6 20  1  0
  7  8  2  0
  7 17  1  0
  8 19  1  0
  8  9  1  0
  9 10  2  0
  9 21  1  0
 10 22  1  0
M  END
