
     RDKit          3D

 17 17  0  0  0  0  0  0  0  0999 V2000
   -1.1816   -0.5552   -0.5246 C   0  0  0  0  0  0  0  0  0  0  0  0
   -1.6431   -0.3763    0.9150 C   0  0  0  0  0  0  0  0  0  0  0  0
    2.3343    0.0301    0.3283 C   0  0  0  0  0  0  0  0  0  0  0  0
    0.9593    0.0311   -0.2619 C   0  0  0  0  0  0  0  0  0  0  0  0
    0.2257   -1.0302   -0.5850 C   0  0  0  0  0  0  0  0  0  0  0  0
   -1.0310    0.8343   -1.0629 C   0  0  0  0  0  0  0  0  0  0  0  0
    0.1738    1.2153   -0.6418 C   0  0  0  0  0  0  0  0  0  0  0  0
   -1.8741   -1.1559   -1.1232 H   0  0  0  0  0  0  0  0  0  0  0  0
   -0.7848   -0.0988    1.5511 H   0  0  0  0  0  0  0  0  0  0  0  0
   -2.1091   -1.2851    1.3206 H   0  0  0  0  0  0  0  0  0  0  0  0
   -2.3709    0.4701    0.9895 H   0  0  0  0  0  0  0  0  0  0  0  0
    2.4038   -0.6609    1.1968 H   0  0  0  0  0  0  0  0  0  0  0  0
    2.5730    1.0769    0.6390 H   0  0  0  0  0  0  0  0  0  0  0  0
    3.1049   -0.2510   -0.4300 H   0  0  0  0  0  0  0  0  0  0  0  0
    0.6272   -2.0091   -0.7976 H   0  0  0  0  0  0  0  0  0  0  0  0
   -1.8838    1.5146   -1.0465 H   0  0  0  0  0  0  0  0  0  0  0  0
    0.4765    2.2500   -0.4669 H   0  0  0  0  0  0  0  0  0  0  0  0
  1  2  1  0
  1  5  1  0
  1  6  1  0
  1  8  1  0
  2  9  1  0
  2 10  1  0
  2 11  1  0
  3 13  1  0
  3  4  1  0
  3 12  1  0
  3 14  1  0
  4  5  2  0
  4  7  1  0
  5 15  1  0
  6 16  1  0
  6  7  2  0
  7 17  1  0
M  END
