
     RDKit          3D

 19 19  0  0  0  0  0  0  0  0999 V2000
   -0.5547   -0.6028    0.0012 C   0  0  0  0  0  0  0  0  0  0  0  0
   -1.4157   -0.2790    1.2194 C   0  0  0  0  0  0  0  0  0  0  0  0
   -1.6517   -0.0661   -0.9145 C   0  0  0  0  0  0  0  0  0  0  0  0
   -2.5094    0.2533    0.3029 C   0  0  0  0  0  0  0  0  0  0  0  0
    3.1595    0.4501   -0.3046 C   0  0  0  0  0  0  0  0  0  0  0  0
    0.7143    0.2121   -0.0579 C   0  0  0  0  0  0  0  0  0  0  0  0
    1.9066   -0.3677   -0.2476 C   0  0  0  0  0  0  0  0  0  0  0  0
   -0.4003   -1.6986   -0.1252 H   0  0  0  0  0  0  0  0  0  0  0  0
   -1.7330   -1.1930    1.7676 H   0  0  0  0  0  0  0  0  0  0  0  0
   -0.9963    0.5119    1.8807 H   0  0  0  0  0  0  0  0  0  0  0  0
   -2.6784    1.3450    0.4305 H   0  0  0  0  0  0  0  0  0  0  0  0
   -3.4374   -0.3580    0.3445 H   0  0  0  0  0  0  0  0  0  0  0  0
   -2.0998   -0.8621   -1.5486 H   0  0  0  0  0  0  0  0  0  0  0  0
   -1.3684    0.8476   -1.4835 H   0  0  0  0  0  0  0  0  0  0  0  0
    3.0997    1.1769   -1.1421 H   0  0  0  0  0  0  0  0  0  0  0  0
    4.0337   -0.2143   -0.4676 H   0  0  0  0  0  0  0  0  0  0  0  0
    3.2981    0.9980    0.6514 H   0  0  0  0  0  0  0  0  0  0  0  0
    0.6536    1.2922    0.0566 H   0  0  0  0  0  0  0  0  0  0  0  0
    1.9797   -1.4457   -0.3632 H   0  0  0  0  0  0  0  0  0  0  0  0
  1  2  1  0
  1  8  1  0
  1  3  1  0
  1  6  1  0
  2  4  1  0
  2  9  1  0
  2 10  1  0
  3 13  1  0
  3  4  1  0
  3 14  1  0
  4 12  1  0
  4 11  1  0
  5 17  1  0
  5 16  1  0
  5 15  1  0
  5  7  1  0
  6  7  2  3
  6 18  1  0
  7 19  1  0
M  END
