
     RDKit          3D

 21 21  0  0  0  0  0  0  0  0999 V2000
    2.0453   -0.6123    0.6468 C   0  0  0  0  0  0  0  0  0  0  0  0
   -3.0671   -0.0031   -0.4356 C   0  0  0  0  0  0  0  0  0  0  0  0
    3.4896   -0.1262    0.7208 C   0  0  0  0  0  0  0  0  0  0  0  0
   -0.1937    0.2892   -0.0508 C   0  0  0  0  0  0  0  0  0  0  0  0
    1.1305    0.4597    0.1140 C   0  0  0  0  0  0  0  0  0  0  0  0
   -2.3231    1.2689   -0.7573 C   0  0  0  0  0  0  0  0  0  0  0  0
   -2.1975   -1.1121    0.1025 C   0  0  0  0  0  0  0  0  0  0  0  0
   -1.0066    1.4019   -0.5806 C   0  0  0  0  0  0  0  0  0  0  0  0
   -0.8806   -0.9805    0.2798 C   0  0  0  0  0  0  0  0  0  0  0  0
    1.7164   -0.9074    1.6667 H   0  0  0  0  0  0  0  0  0  0  0  0
    2.0026   -1.5011   -0.0193 H   0  0  0  0  0  0  0  0  0  0  0  0
   -3.8512    0.2268    0.3157 H   0  0  0  0  0  0  0  0  0  0  0  0
   -3.5669   -0.3630   -1.3592 H   0  0  0  0  0  0  0  0  0  0  0  0
    4.1355   -0.9382    1.1164 H   0  0  0  0  0  0  0  0  0  0  0  0
    3.5668    0.7511    1.3983 H   0  0  0  0  0  0  0  0  0  0  0  0
    3.8534    0.1564   -0.2903 H   0  0  0  0  0  0  0  0  0  0  0  0
    1.5687    1.4172   -0.1488 H   0  0  0  0  0  0  0  0  0  0  0  0
   -2.8866    2.1070   -1.1481 H   0  0  0  0  0  0  0  0  0  0  0  0
   -2.6682   -2.0543    0.3544 H   0  0  0  0  0  0  0  0  0  0  0  0
   -0.5379    2.3460   -0.8335 H   0  0  0  0  0  0  0  0  0  0  0  0
   -0.3296   -1.8258    0.6710 H   0  0  0  0  0  0  0  0  0  0  0  0
  1 11  1  0
  1  3  1  0
  1  5  1  0
  1 10  1  0
  2  6  1  0
  2 12  1  0
  2  7  1  0
  2 13  1  0
  3 14  1  0
  3 15  1  0
  3 16  1  0
  4  5  2  3
  4  8  1  0
  4  9  1  0
  5 17  1  0
  6 18  1  0
  6  8  2  0
  7 19  1  0
  7  9  2  0
  8 20  1  0
  9 21  1  0
M  END
