
     RDKit          3D

 20 21  0  0  0  0  0  0  0  0999 V2000
   -1.2951   -1.0218    0.2304 C   0  0  0  0  0  0  0  0  0  0  0  0
   -2.2738   -0.0633   -0.4352 C   0  0  0  0  0  0  0  0  0  0  0  0
    0.0647   -0.5749   -0.2112 C   0  0  0  0  0  0  0  0  0  0  0  0
    0.3699    0.7794   -0.2282 C   0  0  0  0  0  0  0  0  0  0  0  0
   -1.9935    1.2753    0.1737 C   0  0  0  0  0  0  0  0  0  0  0  0
   -0.7257    1.6858    0.1380 C   0  0  0  0  0  0  0  0  0  0  0  0
    1.0710   -1.4599   -0.4951 C   0  0  0  0  0  0  0  0  0  0  0  0
    1.6819    1.1456    0.0114 C   0  0  0  0  0  0  0  0  0  0  0  0
    2.3801   -1.0926   -0.2449 C   0  0  0  0  0  0  0  0  0  0  0  0
    2.7147    0.2194    0.0701 C   0  0  0  0  0  0  0  0  0  0  0  0
   -2.0011    0.0346   -1.5165 H   0  0  0  0  0  0  0  0  0  0  0  0
   -3.3213   -0.3604   -0.2866 H   0  0  0  0  0  0  0  0  0  0  0  0
   -1.4276   -2.0596   -0.1070 H   0  0  0  0  0  0  0  0  0  0  0  0
   -1.4249   -0.9177    1.3211 H   0  0  0  0  0  0  0  0  0  0  0  0
   -2.6544    1.5534    0.9962 H   0  0  0  0  0  0  0  0  0  0  0  0
    0.7765   -2.4887   -0.7071 H   0  0  0  0  0  0  0  0  0  0  0  0
   -0.5446    2.6390    0.6389 H   0  0  0  0  0  0  0  0  0  0  0  0
    3.1259   -1.8857   -0.2428 H   0  0  0  0  0  0  0  0  0  0  0  0
    1.9051    2.1988    0.1733 H   0  0  0  0  0  0  0  0  0  0  0  0
    3.5723    0.3932    0.7215 H   0  0  0  0  0  0  0  0  0  0  0  0
  1  3  1  0
  1 13  1  0
  1  2  1  0
  1 14  1  0
  2 12  1  0
  2 11  1  0
  2  5  1  0
  3  4  2  0
  3  7  1  0
  4  8  1  0
  4  6  1  0
  5  6  2  0
  5 15  1  0
  6 17  1  0
  7  9  2  0
  7 16  1  0
  8 19  1  0
  8 10  2  0
  9 18  1  0
  9 10  1  0
 10 20  1  0
M  END
