
     RDKit          3D

 19 20  0  0  0  0  0  0  0  0999 V2000
   -0.9387   -0.0724   -0.6420 C   0  0  0  0  0  0  0  0  0  0  0  0
    0.2279    0.1305    0.3392 C   0  0  0  0  0  0  0  0  0  0  0  0
   -2.2507   -0.4911    0.0018 C   0  0  0  0  0  0  0  0  0  0  0  0
   -2.0719    0.9318   -0.5051 C   0  0  0  0  0  0  0  0  0  0  0  0
    1.1293   -1.0967    0.4468 C   0  0  0  0  0  0  0  0  0  0  0  0
    1.3829    0.9199   -0.2717 C   0  0  0  0  0  0  0  0  0  0  0  0
    2.2793   -0.3056   -0.1609 C   0  0  0  0  0  0  0  0  0  0  0  0
   -0.7623   -0.4603   -1.6688 H   0  0  0  0  0  0  0  0  0  0  0  0
   -0.0660    0.5238    1.3394 H   0  0  0  0  0  0  0  0  0  0  0  0
   -2.8988   -1.1209   -0.6436 H   0  0  0  0  0  0  0  0  0  0  0  0
   -2.2461   -0.5807    1.1093 H   0  0  0  0  0  0  0  0  0  0  0  0
   -2.6141    1.1444   -1.4506 H   0  0  0  0  0  0  0  0  0  0  0  0
   -1.9609    1.6885    0.3009 H   0  0  0  0  0  0  0  0  0  0  0  0
    0.8169   -1.9500   -0.1955 H   0  0  0  0  0  0  0  0  0  0  0  0
    1.3266   -1.3848    1.5025 H   0  0  0  0  0  0  0  0  0  0  0  0
    3.1202   -0.1574    0.5516 H   0  0  0  0  0  0  0  0  0  0  0  0
    1.7209    1.7509    0.3853 H   0  0  0  0  0  0  0  0  0  0  0  0
    1.2165    1.2283   -1.3279 H   0  0  0  0  0  0  0  0  0  0  0  0
    2.5889   -0.6983   -1.1541 H   0  0  0  0  0  0  0  0  0  0  0  0
  1  8  1  0
  1  4  1  0
  1  2  1  0
  1  3  1  0
  2  6  1  0
  2  5  1  0
  2  9  1  0
  3 11  1  0
  3 10  1  0
  3  4  1  0
  4 12  1  0
  4 13  1  0
  5  7  1  0
  5 15  1  0
  5 14  1  0
  6  7  1  0
  6 18  1  0
  6 17  1  0
  7 19  1  0
  7 16  1  0
M  END
