
     RDKit          3D

 17 18  0  0  0  0  0  0  0  0999 V2000
   -0.2043    0.2958    0.2914 C   0  0  0  0  0  0  0  0  0  0  0  0
    0.1544   -0.5452   -0.8853 C   0  0  0  0  0  0  0  0  0  0  0  0
    1.2513    0.5459    0.4909 C   0  0  0  0  0  0  0  0  0  0  0  0
    1.4882   -0.7776   -0.2304 C   0  0  0  0  0  0  0  0  0  0  0  0
   -1.1158    1.4409    0.0959 C   0  0  0  0  0  0  0  0  0  0  0  0
   -0.7608   -0.9747    0.7859 C   0  0  0  0  0  0  0  0  0  0  0  0
   -0.9617   -1.3933   -0.4712 C   0  0  0  0  0  0  0  0  0  0  0  0
    0.1473   -0.0976   -1.8768 H   0  0  0  0  0  0  0  0  0  0  0  0
    1.4887   -1.5989    0.5110 H   0  0  0  0  0  0  0  0  0  0  0  0
    1.6305    0.5877    1.5195 H   0  0  0  0  0  0  0  0  0  0  0  0
    1.5946    1.3654   -0.1904 H   0  0  0  0  0  0  0  0  0  0  0  0
    2.3450   -0.7655   -0.9400 H   0  0  0  0  0  0  0  0  0  0  0  0
   -2.1505    1.0403   -0.0051 H   0  0  0  0  0  0  0  0  0  0  0  0
   -1.1146    2.0679    1.0218 H   0  0  0  0  0  0  0  0  0  0  0  0
   -0.8296    2.1044   -0.7450 H   0  0  0  0  0  0  0  0  0  0  0  0
   -1.4260   -1.1607    1.6366 H   0  0  0  0  0  0  0  0  0  0  0  0
   -1.5368   -2.1348   -1.0088 H   0  0  0  0  0  0  0  0  0  0  0  0
  1  6  1  0
  1  3  1  0
  1  5  1  0
  1  2  1  0
  2  8  1  0
  2  4  1  0
  2  7  1  0
  3  4  1  0
  3 10  1  0
  3 11  1  0
  4  9  1  0
  4 12  1  0
  5 15  1  0
  5 13  1  0
  5 14  1  0
  6 16  1  0
  6  7  2  0
  7 17  1  0
M  END
