
     RDKit          3D

 20 21  0  0  0  0  0  0  0  0999 V2000
    1.3586   -0.0037    0.0086 C   0  0  0  0  0  0  0  0  0  0  0  0
   -2.4425    0.2868   -0.6122 C   0  0  0  0  0  0  0  0  0  0  0  0
   -0.0793   -0.0266   -0.3024 C   0  0  0  0  0  0  0  0  0  0  0  0
   -0.2085    0.0655    1.1586 C   0  0  0  0  0  0  0  0  0  0  0  0
    0.8737   -0.6800    1.2489 C   0  0  0  0  0  0  0  0  0  0  0  0
   -1.1261   -0.1728   -1.0811 C   0  0  0  0  0  0  0  0  0  0  0  0
    2.2114   -0.8304   -0.8681 C   0  0  0  0  0  0  0  0  0  0  0  0
   -2.4054    0.9407    0.7132 C   0  0  0  0  0  0  0  0  0  0  0  0
   -1.5470    0.4643    1.6152 C   0  0  0  0  0  0  0  0  0  0  0  0
    3.1806   -0.1904   -1.5359 C   0  0  0  0  0  0  0  0  0  0  0  0
    1.7696    1.0015    0.2440 H   0  0  0  0  0  0  0  0  0  0  0  0
   -2.8772    0.9617   -1.3628 H   0  0  0  0  0  0  0  0  0  0  0  0
   -3.1467   -0.5788   -0.5260 H   0  0  0  0  0  0  0  0  0  0  0  0
    1.2204   -1.3732    1.9879 H   0  0  0  0  0  0  0  0  0  0  0  0
    1.9602   -1.8612   -1.0379 H   0  0  0  0  0  0  0  0  0  0  0  0
   -3.0101    1.8127    0.9718 H   0  0  0  0  0  0  0  0  0  0  0  0
   -1.0871   -0.8752   -1.8923 H   0  0  0  0  0  0  0  0  0  0  0  0
   -1.7507    0.5302    2.6636 H   0  0  0  0  0  0  0  0  0  0  0  0
    2.9522    0.7307   -2.0809 H   0  0  0  0  0  0  0  0  0  0  0  0
    4.1540   -0.2016   -1.0349 H   0  0  0  0  0  0  0  0  0  0  0  0
  1  7  1  0
  1 11  1  0
  1  3  1  0
  1  5  1  0
  2  6  1  0
  2  8  1  0
  2 12  1  0
  2 13  1  0
  3  4  1  0
  3  6  2  0
  4  9  1  0
  4  5  2  0
  5 14  1  0
  6 17  1  0
  7 15  1  0
  7 10  2  3
  8  9  2  0
  8 16  1  0
  9 18  1  0
 10 19  1  0
 10 20  1  0
M  END
