
     RDKit          3D

 17 18  0  0  0  0  0  0  0  0999 V2000
    0.7538    0.0080    0.4728 C   0  0  0  0  0  0  0  0  0  0  0  0
   -0.5032    0.8158    0.3658 C   0  0  0  0  0  0  0  0  0  0  0  0
    0.1515   -1.3515    0.1105 C   0  0  0  0  0  0  0  0  0  0  0  0
   -1.6411   -0.0170    0.8513 C   0  0  0  0  0  0  0  0  0  0  0  0
    1.6765    0.4573   -0.6463 C   0  0  0  0  0  0  0  0  0  0  0  0
   -1.2023   -0.8500   -0.3213 C   0  0  0  0  0  0  0  0  0  0  0  0
   -1.0314    0.3281   -0.9411 C   0  0  0  0  0  0  0  0  0  0  0  0
    1.2228    0.0151    1.4578 H   0  0  0  0  0  0  0  0  0  0  0  0
   -0.4844    1.8736    0.5465 H   0  0  0  0  0  0  0  0  0  0  0  0
    0.6906   -1.8284   -0.7220 H   0  0  0  0  0  0  0  0  0  0  0  0
    0.0985   -1.9513    1.0279 H   0  0  0  0  0  0  0  0  0  0  0  0
   -1.5147   -0.5801    1.7801 H   0  0  0  0  0  0  0  0  0  0  0  0
   -2.6132    0.4490    0.6521 H   0  0  0  0  0  0  0  0  0  0  0  0
    2.3280   -0.3584   -1.0012 H   0  0  0  0  0  0  0  0  0  0  0  0
    1.0505    0.8399   -1.4918 H   0  0  0  0  0  0  0  0  0  0  0  0
    2.2373    1.3340   -0.2651 H   0  0  0  0  0  0  0  0  0  0  0  0
   -1.2192    0.8159   -1.8761 H   0  0  0  0  0  0  0  0  0  0  0  0
  1  3  1  0
  1  8  1  0
  1  5  1  0
  1  2  1  0
  2  4  1  0
  2  9  1  0
  2  7  1  0
  3  6  1  0
  3 10  1  0
  3 11  1  0
  4 13  1  0
  4  6  1  0
  4 12  1  0
  5 14  1  0
  5 16  1  0
  5 15  1  0
  6  7  2  0
  7 17  1  0
M  END
