
     RDKit          3D

 17 17  0  0  0  0  0  0  0  0999 V2000
    0.6607   -0.9666    0.5883 C   0  0  0  0  0  0  0  0  0  0  0  0
    1.9162   -1.4218    0.0348 C   0  0  0  0  0  0  0  0  0  0  0  0
   -1.4022    0.3288    0.1624 C   0  0  0  0  0  0  0  0  0  0  0  0
   -2.8657    0.2433   -0.1687 C   0  0  0  0  0  0  0  0  0  0  0  0
    1.6787    0.0807    0.2740 C   0  0  0  0  0  0  0  0  0  0  0  0
    2.2592    1.2749    0.3678 C   0  0  0  0  0  0  0  0  0  0  0  0
   -0.6271   -0.9038   -0.2096 C   0  0  0  0  0  2  0  0  0  0  0  0
    0.4728   -1.1792    1.6701 H   0  0  0  0  0  0  0  0  0  0  0  0
    2.1228   -1.6344   -1.0224 H   0  0  0  0  0  0  0  0  0  0  0  0
    2.6777   -1.8236    0.7434 H   0  0  0  0  0  0  0  0  0  0  0  0
   -1.3238    0.4655    1.2550 H   0  0  0  0  0  0  0  0  0  0  0  0
   -0.9523    1.2324   -0.3087 H   0  0  0  0  0  0  0  0  0  0  0  0
   -3.2168   -0.7620   -0.4259 H   0  0  0  0  0  0  0  0  0  0  0  0
   -3.0666    0.9245   -1.0351 H   0  0  0  0  0  0  0  0  0  0  0  0
   -3.4930    0.6455    0.6661 H   0  0  0  0  0  0  0  0  0  0  0  0
    3.2915    1.3828    0.7142 H   0  0  0  0  0  0  0  0  0  0  0  0
    1.8679    2.1131   -0.2155 H   0  0  0  0  0  0  0  0  0  0  0  0
  1  2  1  0
  1  8  1  0
  1  5  1  0
  1  7  1  0
  2  9  1  0
  2  5  1  0
  2 10  1  0
  3  4  1  0
  3 11  1  0
  3 12  1  0
  3  7  1  0
  4 14  1  0
  4 15  1  0
  4 13  1  0
  5  6  2  3
  6 17  1  0
  6 16  1  0
M  RAD  1   7   3
M  END
