
     RDKit          3D

 17 17  0  0  0  0  0  0  0  0999 V2000
    0.7291   -0.8407    0.8279 C   0  0  0  0  0  0  0  0  0  0  0  0
    1.8512   -1.4549    0.1891 C   0  0  0  0  0  0  0  0  0  0  0  0
   -1.4897    0.2854    0.4532 C   0  0  0  0  0  0  0  0  0  0  0  0
   -2.7572    0.2736   -0.3896 C   0  0  0  0  0  0  0  0  0  0  0  0
    1.8039    0.0756    0.2446 C   0  0  0  0  0  0  0  0  0  0  0  0
    2.3085    1.2773   -0.0146 C   0  0  0  0  0  0  0  0  0  0  0  0
   -0.5538   -0.8320    0.0063 C   0  0  0  0  0  2  0  0  0  0  0  0
    0.6950   -0.8601    1.9380 H   0  0  0  0  0  0  0  0  0  0  0  0
    1.7218   -1.8309   -0.8486 H   0  0  0  0  0  0  0  0  0  0  0  0
    2.6359   -1.8637    0.8594 H   0  0  0  0  0  0  0  0  0  0  0  0
   -1.7600    0.1424    1.5218 H   0  0  0  0  0  0  0  0  0  0  0  0
   -0.9840    1.2684    0.3369 H   0  0  0  0  0  0  0  0  0  0  0  0
   -3.2871   -0.6962   -0.2745 H   0  0  0  0  0  0  0  0  0  0  0  0
   -2.5084    0.4313   -1.4610 H   0  0  0  0  0  0  0  0  0  0  0  0
   -3.4326    1.0899   -0.0572 H   0  0  0  0  0  0  0  0  0  0  0  0
    3.2524    1.3670   -0.5406 H   0  0  0  0  0  0  0  0  0  0  0  0
    1.7751    2.1677    0.2993 H   0  0  0  0  0  0  0  0  0  0  0  0
  1  2  1  0
  1  8  1  0
  1  5  1  0
  1  7  1  0
  2  9  1  0
  2  5  1  0
  2 10  1  0
  3  4  1  0
  3 11  1  0
  3 12  1  0
  3  7  1  0
  4 14  1  0
  4 15  1  0
  4 13  1  0
  5  6  2  3
  6 17  1  0
  6 16  1  0
M  RAD  1   7   3
M  END
