
     RDKit          3D

 20 21  0  0  0  0  0  0  0  0999 V2000
   -0.2375   -0.7751    0.4359 C   0  0  0  0  0  0  0  0  0  0  0  0
    1.1623   -1.1535   -0.0785 C   0  0  0  0  0  0  0  0  0  0  0  0
   -0.2371    0.7243    0.4303 C   0  0  0  0  0  0  0  0  0  0  0  0
    1.8793    0.1574   -0.0803 C   0  0  0  0  0  0  0  0  0  0  0  0
   -1.3827   -1.3100   -0.3921 C   0  0  0  0  0  0  0  0  0  0  0  0
    0.9561    1.2405    0.2045 C   0  0  0  0  0  0  0  0  0  0  0  0
   -1.4948    1.4734    0.3305 C   0  0  0  0  0  0  0  0  0  0  0  0
   -2.4887   -0.5739   -0.5962 C   0  0  0  0  0  0  0  0  0  0  0  0
   -2.5718    0.8399   -0.1488 C   0  0  0  0  0  0  0  0  0  0  0  0
    3.1640    0.3195   -0.3843 C   0  0  0  0  0  0  0  0  0  0  0  0
   -0.3606   -1.1293    1.4829 H   0  0  0  0  0  0  0  0  0  0  0  0
    1.1326   -1.5683   -1.1100 H   0  0  0  0  0  0  0  0  0  0  0  0
    1.6565   -1.8713    0.6117 H   0  0  0  0  0  0  0  0  0  0  0  0
   -1.3629   -2.3417   -0.7206 H   0  0  0  0  0  0  0  0  0  0  0  0
    1.1609    2.2953    0.0684 H   0  0  0  0  0  0  0  0  0  0  0  0
   -1.5337    2.5310    0.5597 H   0  0  0  0  0  0  0  0  0  0  0  0
   -3.3327   -1.0116   -1.1136 H   0  0  0  0  0  0  0  0  0  0  0  0
   -3.4996    1.3823   -0.2767 H   0  0  0  0  0  0  0  0  0  0  0  0
    3.7834   -0.5363   -0.6204 H   0  0  0  0  0  0  0  0  0  0  0  0
    3.6069    1.3074   -0.3983 H   0  0  0  0  0  0  0  0  0  0  0  0
  1  2  1  0
  1 11  1  0
  1  3  1  0
  1  5  1  0
  2 12  1  0
  2  4  1  0
  2 13  1  0
  3  6  2  0
  3  7  1  0
  4  6  1  0
  4 10  2  3
  5  8  2  0
  5 14  1  0
  6 15  1  0
  7  9  2  0
  7 16  1  0
  8  9  1  0
  8 17  1  0
  9 18  1  0
 10 19  1  0
 10 20  1  0
M  END
