
     RDKit          3D

 20 21  0  0  0  0  0  0  0  0999 V2000
   -0.1758   -0.6635    0.4599 C   0  0  0  0  0  0  0  0  0  0  0  0
    1.0349   -1.0616   -0.3791 C   0  0  0  0  0  0  0  0  0  0  0  0
   -0.2286    0.8161    0.2839 C   0  0  0  0  0  0  0  0  0  0  0  0
    1.9138    0.1247   -0.1399 C   0  0  0  0  0  0  0  0  0  0  0  0
   -1.4040   -1.3183   -0.0384 C   0  0  0  0  0  0  0  0  0  0  0  0
    1.0087    1.2642    0.0657 C   0  0  0  0  0  0  0  0  0  0  0  0
   -1.5616    1.4301    0.2607 C   0  0  0  0  0  0  0  0  0  0  0  0
   -2.4894   -0.6556   -0.4004 C   0  0  0  0  0  0  0  0  0  0  0  0
   -2.5999    0.7906   -0.2455 C   0  0  0  0  0  0  0  0  0  0  0  0
    3.2408    0.1543   -0.0187 C   0  0  0  0  0  0  0  0  0  0  0  0
    0.0254   -0.9528    1.4982 H   0  0  0  0  0  0  0  0  0  0  0  0
    0.6742   -1.0746   -1.4229 H   0  0  0  0  0  0  0  0  0  0  0  0
    1.4862   -2.0031   -0.0409 H   0  0  0  0  0  0  0  0  0  0  0  0
   -1.3465   -2.3656   -0.2679 H   0  0  0  0  0  0  0  0  0  0  0  0
    1.2533    2.2862   -0.2330 H   0  0  0  0  0  0  0  0  0  0  0  0
   -1.6247    2.4968    0.4069 H   0  0  0  0  0  0  0  0  0  0  0  0
   -3.3794   -1.2313   -0.6318 H   0  0  0  0  0  0  0  0  0  0  0  0
   -3.4215    1.2851   -0.7647 H   0  0  0  0  0  0  0  0  0  0  0  0
    3.9082   -0.2776   -0.7612 H   0  0  0  0  0  0  0  0  0  0  0  0
    3.6858    0.9560    0.5733 H   0  0  0  0  0  0  0  0  0  0  0  0
  1  2  1  0
  1 11  1  0
  1  3  1  0
  1  5  1  0
  2 12  1  0
  2  4  1  0
  2 13  1  0
  3  6  2  0
  3  7  1  0
  4  6  1  0
  4 10  2  3
  5  8  2  0
  5 14  1  0
  6 15  1  0
  7  9  2  0
  7 16  1  0
  8  9  1  0
  8 17  1  0
  9 18  1  0
 10 19  1  0
 10 20  1  0
M  END
