
     RDKit          3D

 17 17  0  0  0  0  0  0  0  0999 V2000
    0.2382    0.2163   -0.1528 C   0  0  0  0  0  0  0  0  0  0  0  0
   -0.8648    0.2141    0.8948 C   0  0  0  0  0  0  0  0  0  0  0  0
   -0.3860   -0.4451   -1.3750 C   0  0  0  0  0  0  0  0  0  0  0  0
   -2.1583    0.3603    0.1074 C   0  0  0  0  0  0  0  0  0  0  0  0
    1.4671   -0.5211    0.3219 C   0  0  0  0  0  0  0  0  0  0  0  0
    2.6605    0.0742    0.4022 C   0  0  0  0  0  0  0  0  0  0  0  0
   -1.8728   -0.1410   -1.3004 C   0  0  0  0  0  2  0  0  0  0  0  0
    0.4815    1.2741   -0.4075 H   0  0  0  0  0  0  0  0  0  0  0  0
   -0.8832   -0.7525    1.4477 H   0  0  0  0  0  0  0  0  0  0  0  0
   -0.7357    1.0472    1.6196 H   0  0  0  0  0  0  0  0  0  0  0  0
   -2.9787   -0.2283    0.5701 H   0  0  0  0  0  0  0  0  0  0  0  0
   -2.4533    1.4302    0.0537 H   0  0  0  0  0  0  0  0  0  0  0  0
   -0.2553   -1.5493   -1.3483 H   0  0  0  0  0  0  0  0  0  0  0  0
    0.0468   -0.0430   -2.3156 H   0  0  0  0  0  0  0  0  0  0  0  0
    1.3814   -1.5662    0.6073 H   0  0  0  0  0  0  0  0  0  0  0  0
    2.7896    1.1164    0.1269 H   0  0  0  0  0  0  0  0  0  0  0  0
    3.5231   -0.4862    0.7479 H   0  0  0  0  0  0  0  0  0  0  0  0
  1  8  1  0
  1  3  1  0
  1  5  1  0
  1  2  1  0
  2  9  1  0
  2 10  1  0
  2  4  1  0
  3  7  1  0
  3 13  1  0
  3 14  1  0
  4  7  1  0
  4 11  1  0
  4 12  1  0
  5 15  1  0
  5  6  2  3
  6 16  1  0
  6 17  1  0
M  RAD  1   7   3
M  END
