
     RDKit          3D

 19 19  0  0  0  0  0  0  0  0999 V2000
   -1.3556   -0.4057    0.0175 C   0  0  0  0  0  0  0  0  0  0  0  0
   -0.4454    0.7201    0.3091 C   0  0  0  0  0  0  0  0  0  0  0  0
   -1.1241   -0.0206    1.4686 C   0  0  0  0  0  0  0  0  0  0  0  0
   -2.7516   -0.0635   -0.4757 C   0  0  0  0  0  0  0  0  0  0  0  0
    3.1194   -0.3764   -0.5409 C   0  0  0  0  0  0  0  0  0  0  0  0
    1.0407    0.5185    0.2791 C   0  0  0  0  0  0  0  0  0  0  0  0
    1.6470   -0.1835   -0.6559 C   0  0  0  0  0  0  0  0  0  0  0  0
   -0.9153   -1.3435   -0.3553 H   0  0  0  0  0  0  0  0  0  0  0  0
   -0.8092    1.7580    0.0985 H   0  0  0  0  0  0  0  0  0  0  0  0
   -0.5357   -0.7629    2.0309 H   0  0  0  0  0  0  0  0  0  0  0  0
   -1.9380    0.5202    2.0143 H   0  0  0  0  0  0  0  0  0  0  0  0
   -3.0131   -0.6724   -1.3507 H   0  0  0  0  0  0  0  0  0  0  0  0
   -3.4334   -0.2810    0.3837 H   0  0  0  0  0  0  0  0  0  0  0  0
   -2.8426    1.0232   -0.6912 H   0  0  0  0  0  0  0  0  0  0  0  0
    3.5074   -1.0677   -1.3316 H   0  0  0  0  0  0  0  0  0  0  0  0
    3.4139   -0.8093    0.4470 H   0  0  0  0  0  0  0  0  0  0  0  0
    3.6051    0.6256   -0.5949 H   0  0  0  0  0  0  0  0  0  0  0  0
    1.5947    1.1107    1.0138 H   0  0  0  0  0  0  0  0  0  0  0  0
    1.2358   -0.2899   -1.6628 H   0  0  0  0  0  0  0  0  0  0  0  0
  1  3  1  0
  1  8  1  0
  1  2  1  0
  1  4  1  0
  2  9  1  0
  2  3  1  0
  2  6  1  0
  3 11  1  0
  3 10  1  0
  4 12  1  0
  4 13  1  0
  4 14  1  0
  5 15  1  0
  5 17  1  0
  5 16  1  0
  5  7  1  0
  6  7  2  3
  6 18  1  0
  7 19  1  0
M  END
