
     RDKit          3D

 14 14  0  0  0  0  0  0  0  0999 V2000
    0.7783    0.9492    0.1927 C   0  0  0  0  0  0  0  0  0  0  0  0
   -0.9639   -0.7722   -0.1352 C   0  0  0  0  0  0  0  0  0  0  0  0
    0.4990   -0.4756   -0.1544 C   0  0  0  0  0  0  0  0  0  0  0  0
   -0.5964    1.4793    0.4181 C   0  0  0  0  0  0  0  0  0  0  0  0
   -1.5348    0.5521    0.2415 C   0  0  0  0  0  0  0  0  0  0  0  0
    1.4427   -1.3751   -0.4465 C   0  0  0  0  0  0  0  0  0  0  0  0
    1.3834    1.0230    1.1211 H   0  0  0  0  0  0  0  0  0  0  0  0
    1.2679    1.4777   -0.6526 H   0  0  0  0  0  0  0  0  0  0  0  0
   -1.2067   -1.5361    0.6337 H   0  0  0  0  0  0  0  0  0  0  0  0
   -1.3222   -1.0814   -1.1400 H   0  0  0  0  0  0  0  0  0  0  0  0
   -0.8146    2.5053    0.6953 H   0  0  0  0  0  0  0  0  0  0  0  0
   -2.5958    0.7454    0.3601 H   0  0  0  0  0  0  0  0  0  0  0  0
    1.1720   -2.3975   -0.6909 H   0  0  0  0  0  0  0  0  0  0  0  0
    2.4911   -1.0941   -0.4427 H   0  0  0  0  0  0  0  0  0  0  0  0
  1  3  1  0
  1  7  1  0
  1  8  1  0
  1  4  1  0
  2  3  1  0
  2  5  1  0
  2 10  1  0
  2  9  1  0
  3  6  2  3
  4 11  1  0
  4  5  2  0
  5 12  1  0
  6 14  1  0
  6 13  1  0
M  END
