
     RDKit          3D

 17 17  0  0  0  0  0  0  0  0999 V2000
   -0.5409   -0.1502   -0.8571 C   0  0  0  0  0  0  0  0  0  0  0  0
    0.5056   -0.7745    0.0576 C   0  0  0  0  0  0  0  0  0  0  0  0
   -0.1122   -1.5979   -1.0614 C   0  0  0  0  0  0  0  0  0  0  0  0
    2.3026    0.8859    0.6062 C   0  0  0  0  0  0  0  0  0  0  0  0
   -1.8858    0.0240   -0.2133 C   0  0  0  0  0  0  0  0  0  0  0  0
   -2.0785    0.9388    0.7393 C   0  0  0  0  0  0  0  0  0  0  0  0
    1.9353   -0.3308   -0.2279 C   0  0  0  0  0  2  0  0  0  0  0  0
   -0.1730    0.5911   -1.5992 H   0  0  0  0  0  0  0  0  0  0  0  0
    0.1972   -1.0748    1.0829 H   0  0  0  0  0  0  0  0  0  0  0  0
   -0.8352   -2.3666   -0.7128 H   0  0  0  0  0  0  0  0  0  0  0  0
    0.5287   -1.7549   -1.9558 H   0  0  0  0  0  0  0  0  0  0  0  0
    2.2299    0.6445    1.6877 H   0  0  0  0  0  0  0  0  0  0  0  0
    1.6253    1.7329    0.3667 H   0  0  0  0  0  0  0  0  0  0  0  0
    3.3456    1.1834    0.3736 H   0  0  0  0  0  0  0  0  0  0  0  0
   -2.7222   -0.5804   -0.5515 H   0  0  0  0  0  0  0  0  0  0  0  0
   -1.2614    1.5668    1.0821 H   0  0  0  0  0  0  0  0  0  0  0  0
   -3.0610    1.0627    1.1829 H   0  0  0  0  0  0  0  0  0  0  0  0
  1  8  1  0
  1  2  1  0
  1  3  1  0
  1  5  1  0
  2  3  1  0
  2  9  1  0
  2  7  1  0
  3 10  1  0
  3 11  1  0
  4 13  1  0
  4 12  1  0
  4 14  1  0
  4  7  1  0
  5  6  2  3
  5 15  1  0
  6 16  1  0
  6 17  1  0
M  RAD  1   7   3
M  END
