
     RDKit          3D

 13 14  0  0  0  0  0  0  0  0999 V2000
    0.5003   -0.7962    0.1921 C   0  0  0  0  0  0  0  0  0  0  0  0
    0.5056    0.7338    0.3564 C   0  0  0  0  0  0  0  0  0  0  0  0
    1.3693    0.0697   -0.6931 C   0  0  0  0  0  0  0  0  0  0  0  0
   -0.9972   -0.7510   -0.0624 C   0  0  0  0  0  0  0  0  0  0  0  0
   -0.9920    0.7539    0.0992 C   0  0  0  0  0  0  0  0  0  0  0  0
    0.8968   -1.2487    1.1282 H   0  0  0  0  0  0  0  0  0  0  0  0
    0.9045    0.9746    1.3669 H   0  0  0  0  0  0  0  0  0  0  0  0
   -1.5728   -1.2690    0.7349 H   0  0  0  0  0  0  0  0  0  0  0  0
   -1.2587   -1.0738   -1.0936 H   0  0  0  0  0  0  0  0  0  0  0  0
   -1.2505    1.2901   -0.8398 H   0  0  0  0  0  0  0  0  0  0  0  0
   -1.5647    1.0948    0.9887 H   0  0  0  0  0  0  0  0  0  0  0  0
    2.4491    0.0387   -0.4389 H   0  0  0  0  0  0  0  0  0  0  0  0
    1.0102    0.1832   -1.7386 H   0  0  0  0  0  0  0  0  0  0  0  0
  1  4  1  0
  1  6  1  0
  1  3  1  0
  1  2  1  0
  2  5  1  0
  2  3  1  0
  2  7  1  0
  3 13  1  0
  3 12  1  0
  4  9  1  0
  4  8  1  0
  4  5  1  0
  5 10  1  0
  5 11  1  0
M  END
