
     RDKit          3D

 18 19  0  0  0  0  0  0  0  0999 V2000
   -0.5854   -0.3197   -1.4948 O   0  0  0  0  0  0  0  0  0  0  0  0
   -0.5470    0.9544   -0.8951 C   0  0  0  0  0  0  0  0  0  0  0  0
   -0.7038   -1.1715   -0.3790 C   0  0  0  0  0  0  0  0  0  0  0  0
    0.8971    1.1786   -0.3916 C   0  0  0  0  0  0  0  0  0  0  0  0
    0.7114   -1.3390    0.2196 C   0  0  0  0  0  0  0  0  0  0  0  0
    1.3403    0.0394    0.5694 C   0  0  0  0  0  0  0  0  0  0  0  0
   -1.4968    0.8512    0.2524 C   0  0  0  0  0  0  0  0  0  0  0  0
   -1.5910   -0.4257    0.5624 C   0  0  0  0  0  0  0  0  0  0  0  0
   -0.8645    1.7361   -1.6172 H   0  0  0  0  0  0  0  0  0  0  0  0
   -1.1507   -2.1440   -0.6752 H   0  0  0  0  0  0  0  0  0  0  0  0
    0.9755    2.1611    0.1225 H   0  0  0  0  0  0  0  0  0  0  0  0
    1.5785    1.1972   -1.2697 H   0  0  0  0  0  0  0  0  0  0  0  0
    0.6701   -1.9789    1.1277 H   0  0  0  0  0  0  0  0  0  0  0  0
    1.3537   -1.8503   -0.5298 H   0  0  0  0  0  0  0  0  0  0  0  0
    1.0307    0.3129    1.6020 H   0  0  0  0  0  0  0  0  0  0  0  0
    2.4486   -0.0417    0.5720 H   0  0  0  0  0  0  0  0  0  0  0  0
   -1.9411    1.6699    0.8087 H   0  0  0  0  0  0  0  0  0  0  0  0
   -2.1254   -0.8299    1.4156 H   0  0  0  0  0  0  0  0  0  0  0  0
  1  3  1  0
  1  2  1  0
  2  4  1  0
  2  9  1  0
  2  7  1  0
  3  8  1  0
  3 10  1  0
  3  5  1  0
  4  6  1  0
  4 11  1  0
  4 12  1  0
  5  6  1  0
  5 13  1  0
  5 14  1  0
  6 15  1  0
  6 16  1  0
  7 17  1  0
  7  8  2  0
  8 18  1  0
M  END
