
     RDKit          3D

 19 19  0  0  0  0  0  0  0  0999 V2000
   -1.5399   -0.0718   -0.3533 C   0  0  0  0  0  0  0  0  0  0  0  0
   -0.5413   -0.0052    0.8046 C   0  0  0  0  0  0  0  0  0  0  0  0
    1.7460   -0.7013   -0.5740 C   0  0  0  0  0  0  0  0  0  0  0  0
    2.7716    0.2872   -0.4428 C   0  0  0  0  0  0  0  0  0  0  0  0
   -2.9707   -0.1998    0.1608 C   0  0  0  0  0  0  0  0  0  0  0  0
    0.8548    0.1353    0.2856 C   0  0  0  0  0  0  0  0  0  0  0  0
    1.8558    1.0971    0.4134 C   0  0  0  0  0  0  0  0  0  0  0  0
   -1.4595    0.8498   -0.9706 H   0  0  0  0  0  0  0  0  0  0  0  0
   -1.3099   -0.9488   -0.9974 H   0  0  0  0  0  0  0  0  0  0  0  0
   -0.6030   -0.9323    1.4137 H   0  0  0  0  0  0  0  0  0  0  0  0
    1.3517   -0.7983   -1.6097 H   0  0  0  0  0  0  0  0  0  0  0  0
    1.9967   -1.6708   -0.0896 H   0  0  0  0  0  0  0  0  0  0  0  0
   -0.7747    0.8656    1.4545 H   0  0  0  0  0  0  0  0  0  0  0  0
    3.0141    0.8069   -1.3959 H   0  0  0  0  0  0  0  0  0  0  0  0
    3.6616   -0.0667    0.1228 H   0  0  0  0  0  0  0  0  0  0  0  0
   -3.6716   -0.2475   -0.6990 H   0  0  0  0  0  0  0  0  0  0  0  0
   -3.2358    0.6788    0.7868 H   0  0  0  0  0  0  0  0  0  0  0  0
   -3.0829   -1.1268    0.7626 H   0  0  0  0  0  0  0  0  0  0  0  0
    1.9370    2.0486    0.9276 H   0  0  0  0  0  0  0  0  0  0  0  0
  1  8  1  0
  1  9  1  0
  1  2  1  0
  1  5  1  0
  2  6  1  0
  2 10  1  0
  2 13  1  0
  3 11  1  0
  3 12  1  0
  3  6  1  0
  3  4  1  0
  4  7  1  0
  4 14  1  0
  4 15  1  0
  5 18  1  0
  5 17  1  0
  5 16  1  0
  6  7  2  0
  7 19  1  0
M  END
