
     RDKit          3D

 17 17  0  0  0  0  0  0  0  0999 V2000
   -0.3221   -0.5663   -0.5420 C   0  0  0  0  0  0  0  0  0  0  0  0
    0.0904   -0.0397    0.8296 C   0  0  0  0  0  0  0  0  0  0  0  0
   -0.2890   -1.5060    0.6559 C   0  0  0  0  0  0  0  0  0  0  0  0
   -1.7263   -0.1680   -1.0056 C   0  0  0  0  0  0  0  0  0  0  0  0
    1.5633    0.2157    0.9674 C   0  0  0  0  0  0  0  0  0  0  0  0
    2.1469    1.2338    0.3315 C   0  0  0  0  0  0  0  0  0  0  0  0
   -1.6580    1.1142   -1.8164 C   0  0  0  0  0  2  0  0  0  0  0  0
    0.4810   -0.7453   -1.2904 H   0  0  0  0  0  0  0  0  0  0  0  0
   -0.6411    0.6072    1.3598 H   0  0  0  0  0  0  0  0  0  0  0  0
    0.5595   -2.2237    0.6450 H   0  0  0  0  0  0  0  0  0  0  0  0
   -1.2759   -1.7714    1.0918 H   0  0  0  0  0  0  0  0  0  0  0  0
   -2.1304   -0.9739   -1.6527 H   0  0  0  0  0  0  0  0  0  0  0  0
   -2.4266   -0.0212   -0.1542 H   0  0  0  0  0  0  0  0  0  0  0  0
    2.1564   -0.4169    1.6211 H   0  0  0  0  0  0  0  0  0  0  0  0
    1.5714    1.8908   -0.3140 H   0  0  0  0  0  0  0  0  0  0  0  0
    3.2097    1.4141    0.4550 H   0  0  0  0  0  0  0  0  0  0  0  0
   -1.3091    1.9567   -1.1817 H   0  0  0  0  0  0  0  0  0  0  0  0
  1  8  1  0
  1  4  1  0
  1  3  1  0
  1  2  1  0
  2  5  1  0
  2  9  1  0
  2  3  1  0
  3 11  1  0
  3 10  1  0
  4 12  1  0
  4  7  1  0
  4 13  1  0
  5 14  1  0
  5  6  2  3
  6 16  1  0
  6 15  1  0
  7 17  1  0
M  RAD  1   7   3
M  END
