
     RDKit          3D

 14 14  0  0  0  0  0  0  0  0999 V2000
   -0.1924   -0.3128    0.5537 C   0  0  0  0  0  0  0  0  0  0  0  0
    0.5327   -1.2386   -0.2624 C   0  0  0  0  0  0  0  0  0  0  0  0
    1.2648    0.0159    0.2210 C   0  0  0  0  0  0  0  0  0  0  0  0
   -1.1648    0.5631   -0.1810 C   0  0  0  0  0  0  0  0  0  0  0  0
    2.3407    0.7924    0.2963 C   0  0  0  0  0  0  0  0  0  0  0  0
   -2.4518    0.2235   -0.2710 C   0  0  0  0  0  0  0  0  0  0  0  0
   -0.3580   -0.5642    1.6227 H   0  0  0  0  0  0  0  0  0  0  0  0
    0.3607   -1.2158   -1.3602 H   0  0  0  0  0  0  0  0  0  0  0  0
    0.9058   -2.1521    0.2459 H   0  0  0  0  0  0  0  0  0  0  0  0
   -0.8294    1.4980   -0.6222 H   0  0  0  0  0  0  0  0  0  0  0  0
    2.3031    1.7167    0.8620 H   0  0  0  0  0  0  0  0  0  0  0  0
    3.2552    0.5018   -0.2085 H   0  0  0  0  0  0  0  0  0  0  0  0
   -3.1493    0.8706   -0.7928 H   0  0  0  0  0  0  0  0  0  0  0  0
   -2.8173   -0.6985    0.1714 H   0  0  0  0  0  0  0  0  0  0  0  0
  1  4  1  0
  1  7  1  0
  1  2  1  0
  1  3  1  0
  2  9  1  0
  2  8  1  0
  2  3  1  0
  3  5  2  3
  4  6  2  3
  4 10  1  0
  5 12  1  0
  5 11  1  0
  6 13  1  0
  6 14  1  0
M  END
