
     RDKit          3D

 17 17  0  0  0  0  0  0  0  0999 V2000
   -0.7831   -0.0543   -0.5278 C   0  0  0  0  0  0  0  0  0  0  0  0
   -2.0381   -0.0184    0.3679 C   0  0  0  0  0  0  0  0  0  0  0  0
   -1.6034   -1.2981   -0.2123 C   0  0  0  0  0  0  0  0  0  0  0  0
    2.8374    0.5646    0.0505 C   0  0  0  0  0  0  0  0  0  0  0  0
    0.4794    0.1837    0.1996 C   0  0  0  0  0  0  0  0  0  0  0  0
    1.6549   -0.3242   -0.1942 C   0  0  0  0  0  0  0  0  0  0  0  0
   -3.1389    0.8134   -0.2258 C   0  0  0  0  0  2  0  0  0  0  0  0
   -0.8844    0.2622   -1.5748 H   0  0  0  0  0  0  0  0  0  0  0  0
   -1.8816    0.1610    1.4467 H   0  0  0  0  0  0  0  0  0  0  0  0
   -2.1592   -1.7997   -1.0140 H   0  0  0  0  0  0  0  0  0  0  0  0
   -1.0645   -1.9827    0.4766 H   0  0  0  0  0  0  0  0  0  0  0  0
    2.8622    0.8394    1.1347 H   0  0  0  0  0  0  0  0  0  0  0  0
    2.6088    1.5100   -0.4930 H   0  0  0  0  0  0  0  0  0  0  0  0
    3.7857    0.1049   -0.2594 H   0  0  0  0  0  0  0  0  0  0  0  0
    1.7312   -1.4099   -0.0906 H   0  0  0  0  0  0  0  0  0  0  0  0
    0.4796    0.5717    1.2235 H   0  0  0  0  0  0  0  0  0  0  0  0
   -2.8861    1.8763    0.0092 H   0  0  0  0  0  0  0  0  0  0  0  0
  1  2  1  0
  1  5  1  0
  1  3  1  0
  1  8  1  0
  2  9  1  0
  2  3  1  0
  2  7  1  0
  3 11  1  0
  3 10  1  0
  4  6  1  0
  4 13  1  0
  4 14  1  0
  4 12  1  0
  5 16  1  0
  5  6  2  3
  6 15  1  0
  7 17  1  0
M  RAD  1   7   3
M  END
