
     RDKit          3D

 17 17  0  0  0  0  0  0  0  0999 V2000
   -0.8576    0.1008   -0.5490 C   0  0  0  0  0  0  0  0  0  0  0  0
   -2.0076    0.0393    0.4449 C   0  0  0  0  0  0  0  0  0  0  0  0
   -1.3712   -1.2479   -0.0534 C   0  0  0  0  0  0  0  0  0  0  0  0
    2.9108    0.3012    0.2713 C   0  0  0  0  0  0  0  0  0  0  0  0
    0.4609    0.5080    0.0431 C   0  0  0  0  0  0  0  0  0  0  0  0
    1.5934   -0.1156   -0.3047 C   0  0  0  0  0  0  0  0  0  0  0  0
   -3.3684    0.3287   -0.1655 C   0  0  0  0  0  2  0  0  0  0  0  0
   -1.0884    0.3235   -1.6134 H   0  0  0  0  0  0  0  0  0  0  0  0
   -1.7931    0.3009    1.5037 H   0  0  0  0  0  0  0  0  0  0  0  0
   -1.9597   -1.8141   -0.8073 H   0  0  0  0  0  0  0  0  0  0  0  0
   -0.7384   -1.7592    0.7041 H   0  0  0  0  0  0  0  0  0  0  0  0
    2.8934    0.1896    1.3761 H   0  0  0  0  0  0  0  0  0  0  0  0
    3.1209    1.3598    0.0098 H   0  0  0  0  0  0  0  0  0  0  0  0
    3.7192   -0.3379   -0.1414 H   0  0  0  0  0  0  0  0  0  0  0  0
    1.5656   -0.9389   -1.0137 H   0  0  0  0  0  0  0  0  0  0  0  0
    0.4901    1.3425    0.7389 H   0  0  0  0  0  0  0  0  0  0  0  0
   -3.5700    1.4193   -0.1267 H   0  0  0  0  0  0  0  0  0  0  0  0
  1  2  1  0
  1  5  1  0
  1  3  1  0
  1  8  1  0
  2  9  1  0
  2  3  1  0
  2  7  1  0
  3 11  1  0
  3 10  1  0
  4  6  1  0
  4 13  1  0
  4 14  1  0
  4 12  1  0
  5 16  1  0
  5  6  2  3
  6 15  1  0
  7 17  1  0
M  RAD  1   7   3
M  END
