
     RDKit          3D

 20 21  0  0  0  0  0  0  0  0999 V2000
   -1.9030   -0.6287   -0.2688 C   0  0  0  0  0  0  0  0  0  0  0  0
   -1.0296   -1.4988    0.6069 C   0  0  0  0  0  0  0  0  0  0  0  0
    0.3123   -0.8818    0.3828 C   0  0  0  0  0  0  0  0  0  0  0  0
   -1.3502    0.7245    0.0482 C   0  0  0  0  0  0  0  0  0  0  0  0
    0.0726    0.4845    0.3205 C   0  0  0  0  0  0  0  0  0  0  0  0
    1.5234   -1.3687   -0.0942 C   0  0  0  0  0  0  0  0  0  0  0  0
    1.1613    1.3340    0.1699 C   0  0  0  0  0  0  0  0  0  0  0  0
    2.4401    0.8666   -0.0835 C   0  0  0  0  0  0  0  0  0  0  0  0
    2.5997   -0.5038   -0.2510 C   0  0  0  0  0  0  0  0  0  0  0  0
   -1.9313    1.8675   -0.2441 C   0  0  0  0  0  0  0  0  0  0  0  0
   -2.9729   -0.7172   -0.0517 H   0  0  0  0  0  0  0  0  0  0  0  0
   -1.7081   -0.8952   -1.3196 H   0  0  0  0  0  0  0  0  0  0  0  0
   -1.2436   -1.3872    1.6819 H   0  0  0  0  0  0  0  0  0  0  0  0
   -1.0629   -2.5600    0.3239 H   0  0  0  0  0  0  0  0  0  0  0  0
    0.9966    2.3822    0.4132 H   0  0  0  0  0  0  0  0  0  0  0  0
    3.3170    1.4226    0.2302 H   0  0  0  0  0  0  0  0  0  0  0  0
    1.6158   -2.4108   -0.4010 H   0  0  0  0  0  0  0  0  0  0  0  0
    3.5443   -0.8854   -0.6310 H   0  0  0  0  0  0  0  0  0  0  0  0
   -3.0017    1.9908   -0.0974 H   0  0  0  0  0  0  0  0  0  0  0  0
   -1.3798    2.6649   -0.7352 H   0  0  0  0  0  0  0  0  0  0  0  0
  1 12  1  0
  1 11  1  0
  1  4  1  0
  1  2  1  0
  2  3  1  0
  2 13  1  0
  2 14  1  0
  3  6  1  0
  3  5  2  0
  4 10  2  3
  4  5  1  0
  5  7  1  0
  6  9  2  0
  6 17  1  0
  7  8  2  0
  7 15  1  0
  8 16  1  0
  8  9  1  0
  9 18  1  0
 10 20  1  0
 10 19  1  0
M  END
