
     RDKit          3D

 16 16  0  0  0  0  0  0  0  0999 V2000
   -1.0491   -0.2992   -0.8400 C   0  0  0  0  0  0  0  0  0  0  0  0
   -1.3684    0.6228    0.3353 C   0  0  0  0  0  0  0  0  0  0  0  0
   -0.0227   -1.2076   -0.1669 C   0  0  0  0  0  0  0  0  0  0  0  0
    0.0339    0.9868    0.7751 C   0  0  0  0  0  0  0  0  0  0  0  0
    0.8932   -0.1905    0.4248 C   0  0  0  0  0  0  0  0  0  0  0  0
    2.1626   -0.0618    0.0172 C   0  0  0  0  0  0  0  0  0  0  0  0
   -0.5777    0.3507   -1.6135 H   0  0  0  0  0  0  0  0  0  0  0  0
   -1.9219   -0.8557   -1.1940 H   0  0  0  0  0  0  0  0  0  0  0  0
   -1.9582    1.4843   -0.0043 H   0  0  0  0  0  0  0  0  0  0  0  0
   -1.8938   -0.0187    1.0753 H   0  0  0  0  0  0  0  0  0  0  0  0
   -0.5872   -1.7524    0.6131 H   0  0  0  0  0  0  0  0  0  0  0  0
    0.4696   -1.8735   -0.8875 H   0  0  0  0  0  0  0  0  0  0  0  0
    0.1069    1.2021    1.8553 H   0  0  0  0  0  0  0  0  0  0  0  0
    0.3612    1.8450    0.1618 H   0  0  0  0  0  0  0  0  0  0  0  0
    2.9136   -0.8061    0.2782 H   0  0  0  0  0  0  0  0  0  0  0  0
    2.4380    0.5735   -0.8298 H   0  0  0  0  0  0  0  0  0  0  0  0
  1  7  1  0
  1  2  1  0
  1  3  1  0
  1  8  1  0
  2 10  1  0
  2  9  1  0
  2  4  1  0
  3  5  1  0
  3 11  1  0
  3 12  1  0
  4  5  1  0
  4 13  1  0
  4 14  1  0
  5  6  2  3
  6 15  1  0
  6 16  1  0
M  END
