
     RDKit          3D

 13 13  0  0  0  0  0  0  0  0999 V2000
    0.3478   -0.3824   -0.2889 C   0  0  0  0  0  0  0  0  0  0  0  0
   -0.6601   -0.7051    0.6840 C   0  0  0  0  0  0  0  0  0  0  0  0
    1.4674    0.5274    0.2269 C   0  0  0  0  0  0  0  0  0  0  0  0
   -0.6790    0.3699   -1.0729 C   0  0  0  0  0  0  0  0  0  0  0  0
   -1.6589    0.0482   -0.1342 C   0  0  0  0  0  0  0  0  0  0  0  0
    0.7300   -1.2674   -0.8452 H   0  0  0  0  0  0  0  0  0  0  0  0
   -0.5218   -0.2431    1.6873 H   0  0  0  0  0  0  0  0  0  0  0  0
   -0.9013   -1.7902    0.7243 H   0  0  0  0  0  0  0  0  0  0  0  0
    2.1039    0.8511   -0.6234 H   0  0  0  0  0  0  0  0  0  0  0  0
    1.0582    1.4311    0.7300 H   0  0  0  0  0  0  0  0  0  0  0  0
    2.0996   -0.0318    0.9485 H   0  0  0  0  0  0  0  0  0  0  0  0
   -0.6679    0.9320   -2.0005 H   0  0  0  0  0  0  0  0  0  0  0  0
   -2.7180    0.2603   -0.0358 H   0  0  0  0  0  0  0  0  0  0  0  0
  1  2  1  0
  1  3  1  0
  1  4  1  0
  1  6  1  0
  2  5  1  0
  2  8  1  0
  2  7  1  0
  3 10  1  0
  3  9  1  0
  3 11  1  0
  4  5  2  0
  4 12  1  0
  5 13  1  0
M  END
