
     RDKit          3D

 15 15  0  0  0  0  0  0  0  0999 V2000
    0.2561   -0.3291    0.6348 C   0  0  0  0  0  0  0  0  0  0  0  0
   -0.7318    0.6442    1.1969 C   0  0  0  0  0  0  0  0  0  0  0  0
   -0.6640   -1.3520    0.0568 C   0  0  0  0  0  0  0  0  0  0  0  0
    1.0177    0.3951   -0.4288 C   0  0  0  0  0  0  0  0  0  0  0  0
   -1.7774    0.6303    0.3691 C   0  0  0  0  0  0  0  0  0  0  0  0
   -1.7856   -0.7100   -0.2153 C   0  0  0  0  0  0  0  0  0  0  0  0
    2.3539    0.3124   -0.4568 C   0  0  0  0  0  0  0  0  0  0  0  0
    0.9146   -0.7532    1.4084 H   0  0  0  0  0  0  0  0  0  0  0  0
   -0.4535    1.4717    1.8518 H   0  0  0  0  0  0  0  0  0  0  0  0
   -0.4131   -2.3984   -0.0638 H   0  0  0  0  0  0  0  0  0  0  0  0
    0.5977    1.2334   -0.9744 H   0  0  0  0  0  0  0  0  0  0  0  0
   -2.3408    1.4910    0.0014 H   0  0  0  0  0  0  0  0  0  0  0  0
   -2.6962   -1.1955   -0.5639 H   0  0  0  0  0  0  0  0  0  0  0  0
    2.7612   -0.6570   -0.1726 H   0  0  0  0  0  0  0  0  0  0  0  0
    2.9612    1.2170   -0.3557 H   0  0  0  0  0  0  0  0  0  0  0  0
  1  4  1  0
  1  2  1  0
  1  3  1  0
  1  8  1  0
  2  9  1  0
  2  5  2  0
  3 10  1  0
  3  6  2  0
  4  7  2  3
  4 11  1  0
  5 12  1  0
  5  6  1  0
  6 13  1  0
  7 14  1  0
  7 15  1  0
M  END
