
     RDKit          3D

 22 23  0  0  0  0  0  0  0  0999 V2000
   -0.0380    0.5009    0.5521 C   0  0  0  0  0  0  0  0  0  0  0  0
   -1.3642    1.1620    0.1454 C   0  0  0  0  0  0  0  0  0  0  0  0
    1.1292    1.5059    0.4205 C   0  0  0  0  0  0  0  0  0  0  0  0
   -0.9630   -1.5916   -0.7588 C   0  0  0  0  0  0  0  0  0  0  0  0
    0.2019   -0.7532   -0.2768 C   0  0  0  0  0  0  0  0  0  0  0  0
   -2.4848    0.1625    0.1683 C   0  0  0  0  0  0  0  0  0  0  0  0
   -2.3033   -1.0890   -0.2771 C   0  0  0  0  0  0  0  0  0  0  0  0
    2.4640    0.8164    0.4840 C   0  0  0  0  0  0  0  0  0  0  0  0
    1.4558   -1.1797   -0.4979 C   0  0  0  0  0  0  0  0  0  0  0  0
    2.6156   -0.4182   -0.0010 C   0  0  0  0  0  0  0  0  0  0  0  0
   -0.1106    0.1899    1.6186 H   0  0  0  0  0  0  0  0  0  0  0  0
   -1.2841    1.5711   -0.8857 H   0  0  0  0  0  0  0  0  0  0  0  0
   -1.6017    1.9993    0.8365 H   0  0  0  0  0  0  0  0  0  0  0  0
    1.0696    2.0404   -0.5526 H   0  0  0  0  0  0  0  0  0  0  0  0
    1.0661    2.2607    1.2336 H   0  0  0  0  0  0  0  0  0  0  0  0
   -0.8348   -2.6292   -0.3818 H   0  0  0  0  0  0  0  0  0  0  0  0
   -0.9674   -1.6224   -1.8690 H   0  0  0  0  0  0  0  0  0  0  0  0
   -3.4611    0.4651    0.5348 H   0  0  0  0  0  0  0  0  0  0  0  0
   -3.1478   -1.7713   -0.2889 H   0  0  0  0  0  0  0  0  0  0  0  0
    3.3269    1.3596    0.8481 H   0  0  0  0  0  0  0  0  0  0  0  0
    1.6325   -2.1094   -1.0253 H   0  0  0  0  0  0  0  0  0  0  0  0
    3.5991   -0.8696   -0.0272 H   0  0  0  0  0  0  0  0  0  0  0  0
  1  3  1  0
  1  2  1  0
  1 11  1  0
  1  5  1  0
  2 12  1  0
  2  6  1  0
  2 13  1  0
  3 15  1  0
  3 14  1  0
  3  8  1  0
  4 17  1  0
  4  7  1  0
  4 16  1  0
  4  5  1  0
  5  9  2  0
  6 18  1  0
  6  7  2  0
  7 19  1  0
  8 10  2  0
  8 20  1  0
  9 10  1  0
  9 21  1  0
 10 22  1  0
M  END
