
     RDKit          3D

 19 20  0  0  0  0  0  0  0  0999 V2000
   -0.2486    0.6396    0.8568 C   0  0  0  0  0  0  0  0  0  0  0  0
   -0.8712   -0.7436    1.0029 C   0  0  0  0  0  0  0  0  0  0  0  0
    0.8102   -0.0119    0.0219 C   0  0  0  0  0  0  0  0  0  0  0  0
    0.4937   -1.3005    0.7567 C   0  0  0  0  0  0  0  0  0  0  0  0
   -1.7205   -0.4037   -0.1732 C   0  0  0  0  0  0  0  0  0  0  0  0
   -1.5017    1.0656    0.1693 C   0  0  0  0  0  0  0  0  0  0  0  0
    2.2078    0.5072    0.1926 C   0  0  0  0  0  0  0  0  0  0  0  0
   -1.3546   -0.9542    1.9568 H   0  0  0  0  0  0  0  0  0  0  0  0
    0.5606   -0.0495   -1.0637 H   0  0  0  0  0  0  0  0  0  0  0  0
    0.0474    1.1342    1.7772 H   0  0  0  0  0  0  0  0  0  0  0  0
   -1.3551   -0.7184   -1.1569 H   0  0  0  0  0  0  0  0  0  0  0  0
   -2.7984   -0.6851   -0.0863 H   0  0  0  0  0  0  0  0  0  0  0  0
   -1.3745    1.7368   -0.6888 H   0  0  0  0  0  0  0  0  0  0  0  0
    1.0658   -1.2940    1.7205 H   0  0  0  0  0  0  0  0  0  0  0  0
    0.5609   -2.2226    0.1677 H   0  0  0  0  0  0  0  0  0  0  0  0
   -2.2592    1.3749    0.9309 H   0  0  0  0  0  0  0  0  0  0  0  0
    2.7611   -0.1491    0.8927 H   0  0  0  0  0  0  0  0  0  0  0  0
    2.2099    1.5397    0.6213 H   0  0  0  0  0  0  0  0  0  0  0  0
    2.7665    0.5347   -0.7770 H   0  0  0  0  0  0  0  0  0  0  0  0
  1  6  1  0
  1  3  1  0
  1 10  1  0
  1  2  1  0
  2  8  1  0
  2  4  1  0
  2  5  1  0
  3  4  1  0
  3  7  1  0
  3  9  1  0
  4 14  1  0
  4 15  1  0
  5  6  1  0
  5 12  1  0
  5 11  1  0
  6 16  1  0
  6 13  1  0
  7 18  1  0
  7 17  1  0
  7 19  1  0
M  END
