
     RDKit          3D

 17 18  0  0  0  0  0  0  0  0999 V2000
   -0.4660   -0.4157   -0.7964 C   0  0  0  0  0  0  0  0  0  0  0  0
   -0.0893    0.9020   -0.2550 C   0  0  0  0  0  0  0  0  0  0  0  0
    0.5908   -1.3828   -0.4483 C   0  0  0  0  0  0  0  0  0  0  0  0
   -1.7697   -0.7194   -0.1718 C   0  0  0  0  0  0  0  0  0  0  0  0
    1.3321    1.2155   -0.0516 C   0  0  0  0  0  0  0  0  0  0  0  0
   -1.1969    1.4232    0.2428 C   0  0  0  0  0  0  0  0  0  0  0  0
    1.6221   -1.0940    0.3475 C   0  0  0  0  0  0  0  0  0  0  0  0
   -2.2299    0.3958    0.3972 C   0  0  0  0  0  0  0  0  0  0  0  0
    2.2173    0.2363    0.1527 C   0  0  0  0  0  0  0  0  0  0  0  0
   -0.6317   -0.3030   -1.8811 H   0  0  0  0  0  0  0  0  0  0  0  0
    0.3296   -2.4377   -0.5544 H   0  0  0  0  0  0  0  0  0  0  0  0
   -2.1311   -1.6904    0.1698 H   0  0  0  0  0  0  0  0  0  0  0  0
    3.2298    0.4242    0.4616 H   0  0  0  0  0  0  0  0  0  0  0  0
    2.0787   -1.8402    0.9993 H   0  0  0  0  0  0  0  0  0  0  0  0
    1.6174    2.2521    0.1179 H   0  0  0  0  0  0  0  0  0  0  0  0
   -1.2664    2.4615    0.5200 H   0  0  0  0  0  0  0  0  0  0  0  0
   -3.2368    0.5724    0.7499 H   0  0  0  0  0  0  0  0  0  0  0  0
  1  2  1  0
  1  3  1  0
  1  4  1  0
  1 10  1  0
  2  5  1  0
  2  6  2  0
  3 11  1  0
  3  7  2  0
  4  8  2  0
  4 12  1  0
  5  9  2  0
  5 15  1  0
  6  8  1  0
  6 16  1  0
  7 14  1  0
  7  9  1  0
  8 17  1  0
  9 13  1  0
M  END
