
     RDKit          3D

 19 19  0  0  0  0  0  0  0  0999 V2000
   -1.0010   -0.3437   -0.0898 C   0  0  0  0  0  0  0  0  0  0  0  0
    0.3465    0.3988   -0.0327 C   0  0  0  0  0  0  0  0  0  0  0  0
    1.4628   -0.5182    0.4821 C   0  0  0  0  0  0  0  0  0  0  0  0
   -1.6588   -0.5236    1.1779 C   0  0  0  0  0  0  0  0  0  0  0  0
    2.8036    0.2094    0.5129 C   0  0  0  0  0  0  0  0  0  0  0  0
   -2.1184    0.5559   -0.5141 C   0  0  0  0  0  0  0  0  0  0  0  0
   -2.7604    0.3702    0.7095 C   0  0  0  0  0  0  0  0  0  0  0  0
   -0.9670   -1.2670   -0.7113 H   0  0  0  0  0  0  0  0  0  0  0  0
    0.6041    0.7391   -1.0599 H   0  0  0  0  0  0  0  0  0  0  0  0
    0.2699    1.3007    0.6161 H   0  0  0  0  0  0  0  0  0  0  0  0
    1.5512   -1.4075   -0.1794 H   0  0  0  0  0  0  0  0  0  0  0  0
    1.2216   -0.8677    1.5092 H   0  0  0  0  0  0  0  0  0  0  0  0
   -2.0180   -1.5631    1.3429 H   0  0  0  0  0  0  0  0  0  0  0  0
   -1.1319   -0.0905    2.0572 H   0  0  0  0  0  0  0  0  0  0  0  0
    2.7492    1.0898    1.1882 H   0  0  0  0  0  0  0  0  0  0  0  0
    3.5910   -0.4778    0.8881 H   0  0  0  0  0  0  0  0  0  0  0  0
    3.0835    0.5465   -0.5080 H   0  0  0  0  0  0  0  0  0  0  0  0
   -2.3431    1.1178   -1.4143 H   0  0  0  0  0  0  0  0  0  0  0  0
   -3.6850    0.7310    1.1467 H   0  0  0  0  0  0  0  0  0  0  0  0
  1  8  1  0
  1  2  1  0
  1  4  1  0
  1  6  1  0
  2  9  1  0
  2 10  1  0
  2  3  1  0
  3  5  1  0
  3 11  1  0
  3 12  1  0
  4  7  1  0
  4 13  1  0
  4 14  1  0
  5 15  1  0
  5 16  1  0
  5 17  1  0
  6  7  2  0
  6 18  1  0
  7 19  1  0
M  END
