
     RDKit          3D

 22 23  0  0  0  0  0  0  0  0999 V2000
   -1.3041    0.3174   -0.4562 C   0  0  0  0  0  0  0  0  0  0  0  0
    0.0731    0.4160    0.1345 C   0  0  0  0  0  0  0  0  0  0  0  0
   -1.6557   -1.1261   -0.2246 C   0  0  0  0  0  0  0  0  0  0  0  0
   -2.2006    1.2469    0.3379 C   0  0  0  0  0  0  0  0  0  0  0  0
    0.5676   -0.9836    0.3024 C   0  0  0  0  0  0  0  0  0  0  0  0
   -0.3517   -1.8391   -0.0891 C   0  0  0  0  0  0  0  0  0  0  0  0
    1.0349    1.1091   -0.7619 C   0  0  0  0  0  0  0  0  0  0  0  0
    2.0001   -1.1578    0.5680 C   0  0  0  0  0  0  0  0  0  0  0  0
    2.3249    0.9451   -0.4686 C   0  0  0  0  0  0  0  0  0  0  0  0
    2.7603   -0.0657    0.5020 C   0  0  0  0  0  0  0  0  0  0  0  0
   -1.2846    0.6126   -1.5135 H   0  0  0  0  0  0  0  0  0  0  0  0
    0.0633    0.8666    1.1477 H   0  0  0  0  0  0  0  0  0  0  0  0
   -2.1983   -1.5889   -1.0623 H   0  0  0  0  0  0  0  0  0  0  0  0
   -2.1968   -1.1880    0.7387 H   0  0  0  0  0  0  0  0  0  0  0  0
   -1.7550    1.5198    1.3234 H   0  0  0  0  0  0  0  0  0  0  0  0
   -3.1715    0.7610    0.5610 H   0  0  0  0  0  0  0  0  0  0  0  0
   -2.4014    2.1797   -0.2420 H   0  0  0  0  0  0  0  0  0  0  0  0
    0.7720    1.2833   -1.8062 H   0  0  0  0  0  0  0  0  0  0  0  0
   -0.1859   -2.9022   -0.1608 H   0  0  0  0  0  0  0  0  0  0  0  0
    3.7678   -0.0453    0.9134 H   0  0  0  0  0  0  0  0  0  0  0  0
    3.0160    1.6723   -0.8616 H   0  0  0  0  0  0  0  0  0  0  0  0
    2.3255   -2.0332    1.1177 H   0  0  0  0  0  0  0  0  0  0  0  0
  1 11  1  0
  1  2  1  0
  1  4  1  0
  1  3  1  0
  2  7  1  0
  2  5  1  0
  2 12  1  0
  3  6  1  0
  3 14  1  0
  3 13  1  0
  4 15  1  0
  4 16  1  0
  4 17  1  0
  5  8  1  0
  5  6  2  0
  6 19  1  0
  7  9  2  0
  7 18  1  0
  8 22  1  0
  8 10  2  0
  9 21  1  0
  9 10  1  0
 10 20  1  0
M  END
