
     RDKit          3D

 20 20  0  0  0  0  0  0  0  0999 V2000
    0.4095   -1.1053    0.9975 C   0  0  0  0  0  0  0  0  0  0  0  0
   -0.5584   -0.3162    0.1542 C   0  0  0  0  0  0  0  0  0  0  0  0
   -0.8208    1.0340    0.4429 C   0  0  0  0  0  0  0  0  0  0  0  0
   -1.2049   -0.9249   -0.9351 C   0  0  0  0  0  0  0  0  0  0  0  0
   -1.7156    1.7620   -0.3477 C   0  0  0  0  0  0  0  0  0  0  0  0
   -2.0991   -0.1931   -1.7227 C   0  0  0  0  0  0  0  0  0  0  0  0
   -2.3542    1.1492   -1.4293 C   0  0  0  0  0  0  0  0  0  0  0  0
    1.6548   -1.4276    0.2278 C   0  0  0  0  0  0  0  0  0  0  0  0
    3.3085    0.4567   -0.4930 C   0  0  0  0  0  0  0  0  0  0  0  0
    2.4852   -0.4859   -0.1330 C   0  0  0  0  0  0  0  0  0  0  0  0
    0.6858   -0.5474    1.9192 H   0  0  0  0  0  0  0  0  0  0  0  0
   -0.0788   -2.0499    1.3202 H   0  0  0  0  0  0  0  0  0  0  0  0
   -0.3306    1.5241    1.2749 H   0  0  0  0  0  0  0  0  0  0  0  0
   -1.0144   -1.9643   -1.1729 H   0  0  0  0  0  0  0  0  0  0  0  0
   -1.9132    2.8021   -0.1223 H   0  0  0  0  0  0  0  0  0  0  0  0
   -2.5939   -0.6667   -2.5608 H   0  0  0  0  0  0  0  0  0  0  0  0
   -3.0462    1.7145   -2.0400 H   0  0  0  0  0  0  0  0  0  0  0  0
    1.8867   -2.4572   -0.0110 H   0  0  0  0  0  0  0  0  0  0  0  0
    4.3472    0.2240   -0.6835 H   0  0  0  0  0  0  0  0  0  0  0  0
    2.9522    1.4720   -0.6012 H   0  0  0  0  0  0  0  0  0  0  0  0
  1 12  1  0
  1  8  1  0
  1  2  1  0
  1 11  1  0
  2  3  2  0
  2  4  1  0
  3 13  1  0
  3  5  1  0
  4  6  2  0
  4 14  1  0
  5  7  2  0
  5 15  1  0
  6  7  1  0
  6 16  1  0
  7 17  1  0
  8 10  2  3
  8 18  1  0
  9 10  2  3
  9 19  1  0
  9 20  1  0
M  END
