
     RDKit          3D

 17 17  0  0  0  0  0  0  0  0999 V2000
   -0.7779    0.4026   -0.3468 C   0  0  0  0  0  0  0  0  0  0  0  0
   -0.2131   -0.9921   -0.0401 C   0  0  0  0  0  0  0  0  0  0  0  0
    1.2948   -1.0479   -0.3290 C   0  0  0  0  0  0  0  0  0  0  0  0
   -2.2868    0.4475   -0.1054 C   0  0  0  0  0  0  0  0  0  0  0  0
    2.0379    0.1773    0.1496 C   0  0  0  0  0  0  0  0  0  0  0  0
    1.4173    1.3178    0.4938 C   0  0  0  0  0  0  0  0  0  0  0  0
   -0.0827    1.4377    0.5414 C   0  0  0  0  0  2  0  0  0  0  0  0
   -0.5841    0.6527   -1.4138 H   0  0  0  0  0  0  0  0  0  0  0  0
   -0.3897   -1.2419    1.0303 H   0  0  0  0  0  0  0  0  0  0  0  0
   -0.7285   -1.7577   -0.6604 H   0  0  0  0  0  0  0  0  0  0  0  0
    1.7219   -1.9455    0.1669 H   0  0  0  0  0  0  0  0  0  0  0  0
    1.4595   -1.1513   -1.4230 H   0  0  0  0  0  0  0  0  0  0  0  0
   -2.5226    0.2084    0.9543 H   0  0  0  0  0  0  0  0  0  0  0  0
   -2.6799    1.4597   -0.3410 H   0  0  0  0  0  0  0  0  0  0  0  0
   -2.8005   -0.2863   -0.7625 H   0  0  0  0  0  0  0  0  0  0  0  0
    3.1233    0.1520    0.1485 H   0  0  0  0  0  0  0  0  0  0  0  0
    2.0112    2.1669    0.8159 H   0  0  0  0  0  0  0  0  0  0  0  0
  1  7  1  0
  1  8  1  0
  1  2  1  0
  1  4  1  0
  2  9  1  0
  2  3  1  0
  2 10  1  0
  3 12  1  0
  3 11  1  0
  3  5  1  0
  4 14  1  0
  4 13  1  0
  4 15  1  0
  5  6  2  0
  5 16  1  0
  6 17  1  0
  6  7  1  0
M  RAD  1   7   3
M  END
