
     RDKit          3D

 17 17  0  0  0  0  0  0  0  0999 V2000
   -0.7586    0.3105   -0.3534 C   0  0  0  0  0  0  0  0  0  0  0  0
   -0.1920   -1.0082    0.1323 C   0  0  0  0  0  0  0  0  0  0  0  0
    1.2724   -0.9937   -0.2563 C   0  0  0  0  0  0  0  0  0  0  0  0
   -2.2379    0.4315   -0.1027 C   0  0  0  0  0  0  0  0  0  0  0  0
    1.9772    0.1743    0.3325 C   0  0  0  0  0  0  0  0  0  0  0  0
    1.4124    1.3593    0.2951 C   0  0  0  0  0  0  0  0  0  0  0  0
   -0.0557    1.4984    0.2267 C   0  0  0  0  0  2  0  0  0  0  0  0
   -0.6385    0.3028   -1.4665 H   0  0  0  0  0  0  0  0  0  0  0  0
   -0.3542   -1.1742    1.2071 H   0  0  0  0  0  0  0  0  0  0  0  0
   -0.6741   -1.7965   -0.4972 H   0  0  0  0  0  0  0  0  0  0  0  0
    1.7861   -1.9443    0.0027 H   0  0  0  0  0  0  0  0  0  0  0  0
    1.2787   -0.9219   -1.3742 H   0  0  0  0  0  0  0  0  0  0  0  0
   -2.5440   -0.1615    0.7870 H   0  0  0  0  0  0  0  0  0  0  0  0
   -2.4941    1.4953    0.0592 H   0  0  0  0  0  0  0  0  0  0  0  0
   -2.8531    0.0851   -0.9564 H   0  0  0  0  0  0  0  0  0  0  0  0
    3.0428    0.0857    0.5070 H   0  0  0  0  0  0  0  0  0  0  0  0
    2.0325    2.2576    0.3360 H   0  0  0  0  0  0  0  0  0  0  0  0
  1  7  1  0
  1  8  1  0
  1  2  1  0
  1  4  1  0
  2  9  1  0
  2  3  1  0
  2 10  1  0
  3 12  1  0
  3 11  1  0
  3  5  1  0
  4 14  1  0
  4 13  1  0
  4 15  1  0
  5  6  2  0
  5 16  1  0
  6 17  1  0
  6  7  1  0
M  RAD  1   7   3
M  END
