
     RDKit          3D

 21 22  0  0  0  0  0  0  0  0999 V2000
   -0.3396   -0.6026   -0.7337 C   0  0  0  0  0  0  0  0  0  0  0  0
    1.4850    0.2387   -0.4283 C   0  0  0  0  0  0  0  0  0  0  0  0
    0.9827   -1.1918   -0.2520 C   0  0  0  0  0  0  0  0  0  0  0  0
   -1.5299   -1.1595   -0.0010 C   0  0  0  0  0  0  0  0  0  0  0  0
    2.5571    0.5278    0.5706 C   0  0  0  0  0  0  0  0  0  0  0  0
    0.1141    0.6677   -0.0813 C   0  0  0  0  0  0  0  0  0  0  0  0
   -2.5419   -0.0929    0.1610 C   0  0  0  0  0  0  0  0  0  0  0  0
   -0.8027    1.6224    0.0717 C   0  0  0  0  0  0  0  0  0  0  0  0
   -2.1484    1.1440    0.3936 C   0  0  0  0  0  0  0  0  0  0  0  0
    1.7225    0.3925   -1.4903 H   0  0  0  0  0  0  0  0  0  0  0  0
   -0.4261   -0.5274   -1.8254 H   0  0  0  0  0  0  0  0  0  0  0  0
    0.9233   -1.5025    0.8056 H   0  0  0  0  0  0  0  0  0  0  0  0
    1.4448   -1.9013   -0.9540 H   0  0  0  0  0  0  0  0  0  0  0  0
   -1.1857   -1.4318    1.0129 H   0  0  0  0  0  0  0  0  0  0  0  0
   -1.8884   -2.0192   -0.5943 H   0  0  0  0  0  0  0  0  0  0  0  0
    2.7556   -0.3313    1.2554 H   0  0  0  0  0  0  0  0  0  0  0  0
    3.5128    0.6568    0.0014 H   0  0  0  0  0  0  0  0  0  0  0  0
    2.3929    1.4158    1.1918 H   0  0  0  0  0  0  0  0  0  0  0  0
   -3.5803   -0.3708    0.1213 H   0  0  0  0  0  0  0  0  0  0  0  0
   -2.8235    1.8046    0.9362 H   0  0  0  0  0  0  0  0  0  0  0  0
   -0.6243    2.6610   -0.1616 H   0  0  0  0  0  0  0  0  0  0  0  0
  1  4  1  0
  1  3  1  0
  1  6  1  0
  1 11  1  0
  2  5  1  0
  2  6  1  0
  2 10  1  0
  2  3  1  0
  3 12  1  0
  3 13  1  0
  4 14  1  0
  4  7  1  0
  4 15  1  0
  5 18  1  0
  5 17  1  0
  5 16  1  0
  6  8  2  0
  7  9  2  0
  7 19  1  0
  8 21  1  0
  8  9  1  0
  9 20  1  0
M  END
