
     RDKit          3D

 13 13  0  0  0  0  0  0  0  0999 V2000
    0.2110   -0.3785    0.6660 C   0  0  0  0  0  0  0  0  0  0  0  0
   -0.7090   -0.9870   -0.3424 C   0  0  0  0  0  0  0  0  0  0  0  0
   -0.2548    1.0416    0.6665 C   0  0  0  0  0  0  0  0  0  0  0  0
   -1.5451   -0.0760   -0.8135 C   0  0  0  0  0  0  0  0  0  0  0  0
   -1.2598    1.1980   -0.1798 C   0  0  0  0  0  0  0  0  0  0  0  0
    1.6069   -0.4706    0.2229 C   0  0  0  0  0  0  0  0  0  0  0  0
    2.7542   -0.5469   -0.1403 C   0  0  0  0  0  0  0  0  0  0  0  0
    0.0784   -0.8454    1.6645 H   0  0  0  0  0  0  0  0  0  0  0  0
   -0.7074   -2.0263   -0.6452 H   0  0  0  0  0  0  0  0  0  0  0  0
    0.1573    1.8358    1.2757 H   0  0  0  0  0  0  0  0  0  0  0  0
   -2.3139   -0.2602   -1.5519 H   0  0  0  0  0  0  0  0  0  0  0  0
   -1.7789    2.1292   -0.3635 H   0  0  0  0  0  0  0  0  0  0  0  0
    3.7610   -0.6137   -0.4591 H   0  0  0  0  0  0  0  0  0  0  0  0
  1  3  1  0
  1  6  1  0
  1  2  1  0
  1  8  1  0
  2  4  2  0
  2  9  1  0
  3  5  2  0
  3 10  1  0
  4  5  1  0
  4 11  1  0
  5 12  1  0
  6  7  3  0
  7 13  1  0
M  END
