
     RDKit          3D

 13 13  0  0  0  0  0  0  0  0999 V2000
    0.0984   -0.4981    0.8686 C   0  0  0  0  0  0  0  0  0  0  0  0
   -0.7973   -1.1188   -0.1421 C   0  0  0  0  0  0  0  0  0  0  0  0
   -0.4444    0.8963    0.9155 C   0  0  0  0  0  0  0  0  0  0  0  0
   -1.3639   -0.1307   -0.8340 C   0  0  0  0  0  0  0  0  0  0  0  0
   -0.8045    1.1383   -0.3481 C   0  0  0  0  0  0  0  0  0  0  0  0
    1.4505   -0.3791    0.3233 C   0  0  0  0  0  0  0  0  0  0  0  0
    2.5017   -0.3086   -0.2560 C   0  0  0  0  0  0  0  0  0  0  0  0
    0.0741   -1.0000    1.8411 H   0  0  0  0  0  0  0  0  0  0  0  0
   -0.7985   -2.1379   -0.5172 H   0  0  0  0  0  0  0  0  0  0  0  0
   -0.2040    1.6486    1.6609 H   0  0  0  0  0  0  0  0  0  0  0  0
   -2.1707   -0.1833   -1.5670 H   0  0  0  0  0  0  0  0  0  0  0  0
   -0.7058    2.0698   -0.9099 H   0  0  0  0  0  0  0  0  0  0  0  0
    3.1645    0.0036   -1.0351 H   0  0  0  0  0  0  0  0  0  0  0  0
  1  3  1  0
  1  6  1  0
  1  2  1  0
  1  8  1  0
  2  4  2  0
  2  9  1  0
  3  5  2  0
  3 10  1  0
  4  5  1  0
  4 11  1  0
  5 12  1  0
  6  7  3  0
  7 13  1  0
M  END
