
     RDKit          3D

 22 23  0  0  0  0  0  0  0  0999 V2000
    0.0338   -0.0791   -0.4290 C   0  0  0  0  0  0  0  0  0  0  0  0
   -1.3435   -0.6305    0.0122 C   0  0  0  0  0  0  0  0  0  0  0  0
    1.1883   -1.1010   -0.4143 C   0  0  0  0  0  0  0  0  0  0  0  0
   -2.3340   -0.7103   -1.1513 C   0  0  0  0  0  0  0  0  0  0  0  0
    0.2923    0.9975    0.5704 C   0  0  0  0  0  0  0  0  0  0  0  0
   -1.8129    0.3523    1.0519 C   0  0  0  0  0  0  0  0  0  0  0  0
    2.5201   -0.3798   -0.4435 C   0  0  0  0  0  0  0  0  0  0  0  0
   -0.8942    1.2538    1.3546 C   0  0  0  0  0  0  0  0  0  0  0  0
    1.5188    1.4619    0.8231 C   0  0  0  0  0  0  0  0  0  0  0  0
    2.6711    0.8086    0.1663 C   0  0  0  0  0  0  0  0  0  0  0  0
   -1.2496   -1.6331    0.4843 H   0  0  0  0  0  0  0  0  0  0  0  0
   -0.0178    0.3930   -1.4366 H   0  0  0  0  0  0  0  0  0  0  0  0
    1.1052   -1.7737   -1.2942 H   0  0  0  0  0  0  0  0  0  0  0  0
    1.1465   -1.7187    0.5090 H   0  0  0  0  0  0  0  0  0  0  0  0
   -3.3108   -1.0979   -0.7914 H   0  0  0  0  0  0  0  0  0  0  0  0
   -2.4913    0.2918   -1.6060 H   0  0  0  0  0  0  0  0  0  0  0  0
   -1.9459   -1.4025   -1.9283 H   0  0  0  0  0  0  0  0  0  0  0  0
   -2.7749    0.2997    1.5453 H   0  0  0  0  0  0  0  0  0  0  0  0
    3.3723   -0.8542   -0.9133 H   0  0  0  0  0  0  0  0  0  0  0  0
    3.6463    1.2762    0.2065 H   0  0  0  0  0  0  0  0  0  0  0  0
    1.6808    2.2348    1.5637 H   0  0  0  0  0  0  0  0  0  0  0  0
   -1.0006    2.0109    2.1207 H   0  0  0  0  0  0  0  0  0  0  0  0
  1  2  1  0
  1  5  1  0
  1  3  1  0
  1 12  1  0
  2  6  1  0
  2 11  1  0
  2  4  1  0
  3  7  1  0
  3 13  1  0
  3 14  1  0
  4 15  1  0
  4 17  1  0
  4 16  1  0
  5  9  2  0
  5  8  1  0
  6 18  1  0
  6  8  2  0
  7 10  2  0
  7 19  1  0
  8 22  1  0
  9 10  1  0
  9 21  1  0
 10 20  1  0
M  END
