
     RDKit          3D

 17 17  0  0  0  0  0  0  0  0999 V2000
   -2.7642    0.7858    0.0717 C   0  0  0  0  0  0  0  0  0  0  0  0
   -3.1058   -0.5901   -0.0890 C   0  0  0  0  0  0  0  0  0  0  0  0
    1.9546    0.1688    0.3191 C   0  0  0  0  0  0  0  0  0  0  0  0
    2.9032    0.3514   -0.8599 C   0  0  0  0  0  0  0  0  0  0  0  0
   -1.6259   -0.2273   -0.0071 C   0  0  0  0  0  0  0  0  0  0  0  0
    0.9056   -0.8521   -0.0045 C   0  0  0  0  0  0  0  0  0  0  0  0
   -0.3619   -0.5403   -0.0057 C   0  0  0  0  0  0  0  0  0  0  0  0
   -2.8781    1.2070    1.0925 H   0  0  0  0  0  0  0  0  0  0  0  0
   -2.8233    1.4189   -0.8384 H   0  0  0  0  0  0  0  0  0  0  0  0
   -3.4018   -0.9092   -1.1103 H   0  0  0  0  0  0  0  0  0  0  0  0
   -3.4567   -1.1210    0.8207 H   0  0  0  0  0  0  0  0  0  0  0  0
    1.4944    1.1508    0.5697 H   0  0  0  0  0  0  0  0  0  0  0  0
    2.5311   -0.1777    1.2031 H   0  0  0  0  0  0  0  0  0  0  0  0
    2.3440    0.7071   -1.7518 H   0  0  0  0  0  0  0  0  0  0  0  0
    3.4088   -0.6080   -1.1019 H   0  0  0  0  0  0  0  0  0  0  0  0
    3.6768    1.1049   -0.6014 H   0  0  0  0  0  0  0  0  0  0  0  0
    1.1993   -1.8691   -0.2300 H   0  0  0  0  0  0  0  0  0  0  0  0
  1  2  1  0
  1  8  1  0
  1  5  1  0
  1  9  1  0
  2 10  1  0
  2  5  1  0
  2 11  1  0
  3  6  1  0
  3 13  1  0
  3 12  1  0
  3  4  1  0
  4 15  1  0
  4 16  1  0
  4 14  1  0
  5  7  2  3
  6 17  1  0
  6  7  2  3
M  END
