
     RDKit          3D

 17 17  0  0  0  0  0  0  0  0999 V2000
   -2.5972    0.8443    0.0670 C   0  0  0  0  0  0  0  0  0  0  0  0
   -2.9827   -0.5318   -0.1050 C   0  0  0  0  0  0  0  0  0  0  0  0
    1.7674    0.0111    0.3605 C   0  0  0  0  0  0  0  0  0  0  0  0
    2.9363    0.3296   -0.5649 C   0  0  0  0  0  0  0  0  0  0  0  0
   -1.6345   -0.1035   -0.4813 C   0  0  0  0  0  0  0  0  0  0  0  0
    0.8524   -0.8499   -0.4080 C   0  0  0  0  0  0  0  0  0  0  0  0
   -0.3650   -0.4075   -0.6284 C   0  0  0  0  0  0  0  0  0  0  0  0
   -2.4506    1.2086    1.1155 H   0  0  0  0  0  0  0  0  0  0  0  0
   -2.8879    1.6649   -0.6356 H   0  0  0  0  0  0  0  0  0  0  0  0
   -3.6614   -0.7818   -0.9591 H   0  0  0  0  0  0  0  0  0  0  0  0
   -3.1704   -1.1482    0.7914 H   0  0  0  0  0  0  0  0  0  0  0  0
    1.3037    0.9792    0.6127 H   0  0  0  0  0  0  0  0  0  0  0  0
    2.1863   -0.4758    1.2666 H   0  0  0  0  0  0  0  0  0  0  0  0
    2.6399    0.1992   -1.6366 H   0  0  0  0  0  0  0  0  0  0  0  0
    3.7467   -0.3956   -0.3890 H   0  0  0  0  0  0  0  0  0  0  0  0
    3.2976    1.3567   -0.4159 H   0  0  0  0  0  0  0  0  0  0  0  0
    1.0193   -1.8996   -0.5132 H   0  0  0  0  0  0  0  0  0  0  0  0
  1  2  1  0
  1  8  1  0
  1  5  1  0
  1  9  1  0
  2 10  1  0
  2  5  1  0
  2 11  1  0
  3  6  1  0
  3 13  1  0
  3 12  1  0
  3  4  1  0
  4 15  1  0
  4 16  1  0
  4 14  1  0
  5  7  2  3
  6 17  1  0
  6  7  2  3
M  END
