
     RDKit          3D

 22 23  0  0  0  0  0  0  0  0999 V2000
   -0.4232    0.6850   -0.5248 C   0  0  0  0  0  0  0  0  0  0  0  0
   -0.2936   -0.8610   -0.5631 C   0  0  0  0  0  0  0  0  0  0  0  0
    0.6102    1.4312    0.3356 C   0  0  0  0  0  0  0  0  0  0  0  0
   -1.8683    0.9709   -0.0849 C   0  0  0  0  0  0  0  0  0  0  0  0
   -1.7118   -1.3206   -0.5082 C   0  0  0  0  0  0  0  0  0  0  0  0
    0.4903   -1.4876    0.5726 C   0  0  0  0  0  0  0  0  0  0  0  0
   -2.5548   -0.3374   -0.2396 C   0  0  0  0  0  0  0  0  0  0  0  0
    2.0117    1.0724   -0.0695 C   0  0  0  0  0  0  0  0  0  0  0  0
    2.5348   -0.1373    0.1582 C   0  0  0  0  0  0  0  0  0  0  0  0
    1.7824   -1.2263    0.8101 C   0  0  0  0  0  0  0  0  0  0  0  0
   -0.3148    1.0538   -1.5714 H   0  0  0  0  0  0  0  0  0  0  0  0
    0.1562   -1.1780   -1.5297 H   0  0  0  0  0  0  0  0  0  0  0  0
    0.4633    1.2091    1.4156 H   0  0  0  0  0  0  0  0  0  0  0  0
    0.4675    2.5249    0.1978 H   0  0  0  0  0  0  0  0  0  0  0  0
   -2.3402    1.7351   -0.7394 H   0  0  0  0  0  0  0  0  0  0  0  0
   -1.9334    1.2911    0.9776 H   0  0  0  0  0  0  0  0  0  0  0  0
    2.6396    1.8409   -0.5035 H   0  0  0  0  0  0  0  0  0  0  0  0
    0.0305   -2.2871    1.1433 H   0  0  0  0  0  0  0  0  0  0  0  0
   -2.0227   -2.3533   -0.6319 H   0  0  0  0  0  0  0  0  0  0  0  0
   -3.6230   -0.4827   -0.1168 H   0  0  0  0  0  0  0  0  0  0  0  0
    3.5855   -0.2958   -0.0484 H   0  0  0  0  0  0  0  0  0  0  0  0
    2.3136   -1.8470    1.5205 H   0  0  0  0  0  0  0  0  0  0  0  0
  1  4  1  0
  1 11  1  0
  1  2  1  0
  1  3  1  0
  2 12  1  0
  2  6  1  0
  2  5  1  0
  3 13  1  0
  3  8  1  0
  3 14  1  0
  4 15  1  0
  4  7  1  0
  4 16  1  0
  5 19  1  0
  5  7  2  0
  6 10  2  0
  6 18  1  0
  7 20  1  0
  8 17  1  0
  8  9  2  0
  9 10  1  0
  9 21  1  0
 10 22  1  0
M  END
