
     RDKit          3D

 20 20  0  0  0  0  0  0  0  0999 V2000
   -2.1693    1.5808    0.1269 C   0  0  0  0  0  0  0  0  0  0  0  0
    3.9877    0.0450   -0.6484 C   0  0  0  0  0  0  0  0  0  0  0  0
   -0.8168   -0.9628    0.5316 C   0  0  0  0  0  0  0  0  0  0  0  0
   -0.0575    0.2312    0.0754 C   0  0  0  0  0  0  0  0  0  0  0  0
   -0.6899    1.3983   -0.1080 C   0  0  0  0  0  0  0  0  0  0  0  0
   -2.8865    0.3379    0.5877 C   0  0  0  0  0  0  0  0  0  0  0  0
   -2.2655   -0.8279    0.7730 C   0  0  0  0  0  0  0  0  0  0  0  0
   -0.2279   -2.1489    0.7283 C   0  0  0  0  0  0  0  0  0  0  0  0
    2.5493    0.1122   -0.3913 C   0  0  0  0  0  0  0  0  0  0  0  0
    1.3637    0.1665   -0.1791 C   0  0  0  0  0  0  0  0  0  0  0  0
   -2.3097    2.3728    0.8921 H   0  0  0  0  0  0  0  0  0  0  0  0
   -2.6364    1.9269   -0.8189 H   0  0  0  0  0  0  0  0  0  0  0  0
    4.5161    0.7587    0.0166 H   0  0  0  0  0  0  0  0  0  0  0  0
    4.1869    0.3093   -1.7073 H   0  0  0  0  0  0  0  0  0  0  0  0
    4.3511   -0.9842   -0.4495 H   0  0  0  0  0  0  0  0  0  0  0  0
   -0.1308    2.2660   -0.4409 H   0  0  0  0  0  0  0  0  0  0  0  0
   -3.9513    0.4001    0.7748 H   0  0  0  0  0  0  0  0  0  0  0  0
   -2.8436   -1.6822    1.1061 H   0  0  0  0  0  0  0  0  0  0  0  0
    0.8316   -2.2941    0.5638 H   0  0  0  0  0  0  0  0  0  0  0  0
   -0.8011   -3.0058    1.0610 H   0  0  0  0  0  0  0  0  0  0  0  0
  1  6  1  0
  1  5  1  0
  1 12  1  0
  1 11  1  0
  2 13  1  0
  2  9  1  0
  2 14  1  0
  2 15  1  0
  3  7  1  0
  3  4  1  0
  3  8  2  3
  4 10  1  0
  4  5  2  0
  5 16  1  0
  6  7  2  0
  6 17  1  0
  7 18  1  0
  8 19  1  0
  8 20  1  0
  9 10  3  0
M  END
