
     RDKit          3D

 20 20  0  0  0  0  0  0  0  0999 V2000
   -2.0515    1.4832   -0.0837 C   0  0  0  0  0  0  0  0  0  0  0  0
    3.8689    0.3060   -0.4140 C   0  0  0  0  0  0  0  0  0  0  0  0
   -0.7889   -1.0142    0.4900 C   0  0  0  0  0  0  0  0  0  0  0  0
   -0.0272    0.2371    0.5478 C   0  0  0  0  0  0  0  0  0  0  0  0
   -0.5761    1.2462   -0.1315 C   0  0  0  0  0  0  0  0  0  0  0  0
   -2.8068    0.2495    0.2101 C   0  0  0  0  0  0  0  0  0  0  0  0
   -2.2509   -0.9008    0.5581 C   0  0  0  0  0  0  0  0  0  0  0  0
   -0.2568   -2.2023    0.6270 C   0  0  0  0  0  0  0  0  0  0  0  0
    2.5925    0.0552    0.2790 C   0  0  0  0  0  0  0  0  0  0  0  0
    1.4147    0.1253    0.5763 C   0  0  0  0  0  0  0  0  0  0  0  0
   -2.2033    2.2142    0.7392 H   0  0  0  0  0  0  0  0  0  0  0  0
   -2.4155    1.8672   -1.0676 H   0  0  0  0  0  0  0  0  0  0  0  0
    4.2181    1.3582   -0.2600 H   0  0  0  0  0  0  0  0  0  0  0  0
    3.7613    0.2125   -1.5220 H   0  0  0  0  0  0  0  0  0  0  0  0
    4.5926   -0.4163   -0.0115 H   0  0  0  0  0  0  0  0  0  0  0  0
    0.0024    2.0975   -0.4825 H   0  0  0  0  0  0  0  0  0  0  0  0
   -3.8737    0.2658   -0.0001 H   0  0  0  0  0  0  0  0  0  0  0  0
   -2.8411   -1.6802    1.0452 H   0  0  0  0  0  0  0  0  0  0  0  0
   -0.0422   -2.8333   -0.2146 H   0  0  0  0  0  0  0  0  0  0  0  0
   -0.3165   -2.6709    1.6086 H   0  0  0  0  0  0  0  0  0  0  0  0
  1  6  1  0
  1  5  1  0
  1 12  1  0
  1 11  1  0
  2 13  1  0
  2  9  1  0
  2 14  1  0
  2 15  1  0
  3  7  1  0
  3  4  1  0
  3  8  2  3
  4 10  1  0
  4  5  2  0
  5 16  1  0
  6  7  2  0
  6 17  1  0
  7 18  1  0
  8 19  1  0
  8 20  1  0
  9 10  3  0
M  END
