
     RDKit          3D

 19 20  0  0  0  0  0  0  0  0999 V2000
   -2.1095   -0.1189   -0.2594 C   0  0  0  0  0  0  0  0  0  0  0  0
   -1.3995    1.1645    0.1697 C   0  0  0  0  0  0  0  0  0  0  0  0
   -1.2984   -1.1056    0.5615 C   0  0  0  0  0  0  0  0  0  0  0  0
    0.0217    0.7338    0.0899 C   0  0  0  0  0  0  0  0  0  0  0  0
    0.0813   -0.6501    0.2070 C   0  0  0  0  0  0  0  0  0  0  0  0
    1.2382    1.3610   -0.1138 C   0  0  0  0  0  0  0  0  0  0  0  0
    1.1369   -1.3534   -0.3451 C   0  0  0  0  0  0  0  0  0  0  0  0
    2.4299    0.6704   -0.1039 C   0  0  0  0  0  0  0  0  0  0  0  0
    2.3548   -0.6825   -0.3385 C   0  0  0  0  0  0  0  0  0  0  0  0
   -1.9337   -0.2251   -1.3491 H   0  0  0  0  0  0  0  0  0  0  0  0
   -3.1765   -0.1190    0.0165 H   0  0  0  0  0  0  0  0  0  0  0  0
   -1.6541    1.9884   -0.5027 H   0  0  0  0  0  0  0  0  0  0  0  0
   -1.6014    1.3613    1.2289 H   0  0  0  0  0  0  0  0  0  0  0  0
   -1.4673   -2.1503    0.2846 H   0  0  0  0  0  0  0  0  0  0  0  0
   -1.5114   -0.8806    1.6264 H   0  0  0  0  0  0  0  0  0  0  0  0
    1.2075    2.4309   -0.2800 H   0  0  0  0  0  0  0  0  0  0  0  0
    3.3460    1.1820    0.1961 H   0  0  0  0  0  0  0  0  0  0  0  0
    3.2850   -1.2535   -0.3468 H   0  0  0  0  0  0  0  0  0  0  0  0
    1.0504   -2.3530   -0.7413 H   0  0  0  0  0  0  0  0  0  0  0  0
  1  3  1  0
  1 10  1  0
  1 11  1  0
  1  2  1  0
  2 13  1  0
  2  4  1  0
  2 12  1  0
  3 15  1  0
  3  5  1  0
  3 14  1  0
  4  6  1  0
  4  5  2  0
  5  7  1  0
  6 16  1  0
  6  8  2  0
  7 19  1  0
  7  9  2  0
  8 17  1  0
  8  9  1  0
  9 18  1  0
M  END
