
     RDKit          3D

 15 15  0  0  0  0  0  0  0  0999 V2000
    0.4152    0.9321   -0.5691 C   0  0  0  0  0  0  0  0  0  0  0  0
   -0.1837   -0.3770   -0.1575 C   0  0  0  0  0  0  0  0  0  0  0  0
    1.7629    0.8075    0.0283 C   0  0  0  0  0  0  0  0  0  0  0  0
    0.8405   -1.2298   -0.2328 C   0  0  0  0  0  0  0  0  0  0  0  0
    2.0863   -0.4870   -0.0185 C   0  0  0  0  0  0  0  0  0  0  0  0
   -1.5456   -0.6472    0.3163 C   0  0  0  0  0  0  0  0  0  0  0  0
   -2.5093    0.1247   -0.1903 C   0  0  0  0  0  0  0  0  0  0  0  0
    0.5691    0.9081   -1.6732 H   0  0  0  0  0  0  0  0  0  0  0  0
   -0.1598    1.7949   -0.2295 H   0  0  0  0  0  0  0  0  0  0  0  0
    2.5067    1.5868    0.1087 H   0  0  0  0  0  0  0  0  0  0  0  0
    0.7000   -2.2601   -0.5589 H   0  0  0  0  0  0  0  0  0  0  0  0
    2.9931   -0.9650    0.3599 H   0  0  0  0  0  0  0  0  0  0  0  0
   -1.7489   -0.9986    1.3304 H   0  0  0  0  0  0  0  0  0  0  0  0
   -2.4210    1.1778   -0.0150 H   0  0  0  0  0  0  0  0  0  0  0  0
   -3.3055   -0.3673   -0.7167 H   0  0  0  0  0  0  0  0  0  0  0  0
  1  9  1  0
  1  3  1  0
  1  2  1  0
  1  8  1  0
  2  6  1  0
  2  4  2  0
  3  5  2  0
  3 10  1  0
  4  5  1  0
  4 11  1  0
  5 12  1  0
  6 13  1  0
  6  7  2  3
  7 14  1  0
  7 15  1  0
M  END
