
     RDKit          3D

 21 21  0  0  0  0  0  0  0  0999 V2000
   -2.3680    0.1631   -0.6750 O   0  0  0  0  0  0  0  0  0  0  0  0
   -3.4533    0.7730   -0.2533 O   0  0  0  0  0  0  0  0  0  0  0  0
    0.8774   -0.1927    0.2303 C   0  0  0  0  0  0  0  0  0  0  0  0
   -1.4870    0.0074    0.3788 C   0  0  0  0  0  0  0  0  0  0  0  0
   -0.2454    0.8076    0.1000 C   0  0  0  0  0  0  0  0  0  0  0  0
    0.2318   -1.4463   -0.2923 C   0  0  0  0  0  0  0  0  0  0  0  0
   -1.0687   -1.4396    0.5048 C   0  0  0  0  0  0  0  0  0  0  0  0
    2.0147    0.2746   -0.5875 C   0  0  0  0  0  0  0  0  0  0  0  0
    2.9311    1.0342    0.0278 C   0  0  0  0  0  0  0  0  0  0  0  0
    1.1423   -0.3601    1.2811 H   0  0  0  0  0  0  0  0  0  0  0  0
   -1.9292    0.4062    1.3174 H   0  0  0  0  0  0  0  0  0  0  0  0
    0.0173   -1.4277   -1.3699 H   0  0  0  0  0  0  0  0  0  0  0  0
    0.8356   -2.3142    0.0069 H   0  0  0  0  0  0  0  0  0  0  0  0
   -0.7872   -1.5985    1.5535 H   0  0  0  0  0  0  0  0  0  0  0  0
   -1.8089   -2.1498    0.1155 H   0  0  0  0  0  0  0  0  0  0  0  0
   -0.2641    1.2693   -0.9195 H   0  0  0  0  0  0  0  0  0  0  0  0
   -0.0528    1.5988    0.8524 H   0  0  0  0  0  0  0  0  0  0  0  0
    1.7784    0.6026   -1.6052 H   0  0  0  0  0  0  0  0  0  0  0  0
    2.9699    1.1358    1.1169 H   0  0  0  0  0  0  0  0  0  0  0  0
    3.8100    1.4159   -0.4984 H   0  0  0  0  0  0  0  0  0  0  0  0
   -3.1438    1.4403    0.4176 H   0  0  0  0  0  0  0  0  0  0  0  0
  1  4  1  0
  1  2  1  0
  2 21  1  0
  3  8  1  0
  3  5  1  0
  3  6  1  0
  3 10  1  0
  4  5  1  0
  4  7  1  0
  4 11  1  0
  5 17  1  0
  5 16  1  0
  6 13  1  0
  6  7  1  0
  6 12  1  0
  7 14  1  0
  7 15  1  0
  8 18  1  0
  8  9  2  3
  9 19  1  0
  9 20  1  0
M  END
