
     RDKit          3D

 21 21  0  0  0  0  0  0  0  0999 V2000
   -1.0442    1.7587    0.6252 O   0  0  0  0  0  0  0  0  0  0  0  0
   -0.6635    2.8827    0.0675 O   0  0  0  0  0  0  0  0  0  0  0  0
   -1.1604   -0.5708    0.5816 C   0  0  0  0  0  0  0  0  0  0  0  0
   -2.5483   -0.7261   -0.0228 C   0  0  0  0  0  0  0  0  0  0  0  0
   -1.5097   -1.7328   -0.2496 C   0  0  0  0  0  0  0  0  0  0  0  0
   -0.4456    0.6403    0.0235 C   0  0  0  0  0  0  0  0  0  0  0  0
    2.8985   -0.6437   -0.3902 C   0  0  0  0  0  0  0  0  0  0  0  0
    0.9847    0.6773    0.4353 C   0  0  0  0  0  0  0  0  0  0  0  0
    1.9849    0.5445   -0.4357 C   0  0  0  0  0  0  0  0  0  0  0  0
   -1.0400   -0.6760    1.6737 H   0  0  0  0  0  0  0  0  0  0  0  0
   -3.3358   -0.7824    0.7314 H   0  0  0  0  0  0  0  0  0  0  0  0
   -2.8258   -0.1052   -0.9049 H   0  0  0  0  0  0  0  0  0  0  0  0
   -1.6083   -2.7205    0.2411 H   0  0  0  0  0  0  0  0  0  0  0  0
   -1.0283   -1.7828   -1.2364 H   0  0  0  0  0  0  0  0  0  0  0  0
   -0.5177    0.6657   -1.0740 H   0  0  0  0  0  0  0  0  0  0  0  0
    3.8683   -0.3940    0.1023 H   0  0  0  0  0  0  0  0  0  0  0  0
    2.4421   -1.4829    0.1659 H   0  0  0  0  0  0  0  0  0  0  0  0
    3.1565   -1.0070   -1.4059 H   0  0  0  0  0  0  0  0  0  0  0  0
    1.1902    0.3971    1.4584 H   0  0  0  0  0  0  0  0  0  0  0  0
    2.4542    1.4716   -0.7793 H   0  0  0  0  0  0  0  0  0  0  0  0
   -1.2518    3.5862    0.4653 H   0  0  0  0  0  0  0  0  0  0  0  0
  1  6  1  0
  1  2  1  0
  2 21  1  0
  3  5  1  0
  3  4  1  0
  3 10  1  0
  3  6  1  0
  4  5  1  0
  4 11  1  0
  4 12  1  0
  5 14  1  0
  5 13  1  0
  6  8  1  0
  6 15  1  0
  7  9  1  0
  7 17  1  0
  7 16  1  0
  7 18  1  0
  8  9  2  3
  8 19  1  0
  9 20  1  0
M  END
