
     RDKit          3D

 17 17  0  0  0  0  0  0  0  0999 V2000
    0.5463   -0.2356    0.4469 C   0  0  0  0  0  0  0  0  0  0  0  0
   -0.6193   -0.9484   -0.2722 C   0  0  0  0  0  0  0  0  0  0  0  0
   -1.9262   -0.1788   -0.0846 C   0  0  0  0  0  0  0  0  0  0  0  0
    1.8888   -0.8039   -0.0218 C   0  0  0  0  0  0  0  0  0  0  0  0
    0.5205    1.2688    0.2530 C   0  0  0  0  0  0  0  0  0  0  0  0
   -0.5549    1.9263   -0.2132 C   0  0  0  0  0  0  0  0  0  0  0  0
   -1.7919    1.2150   -0.6926 C   0  0  0  0  0  2  0  0  0  0  0  0
    0.4562   -0.4303    1.5383 H   0  0  0  0  0  0  0  0  0  0  0  0
   -0.7359   -1.9757    0.1364 H   0  0  0  0  0  0  0  0  0  0  0  0
   -0.4071   -1.0355   -1.3617 H   0  0  0  0  0  0  0  0  0  0  0  0
   -2.7541   -0.7162   -0.5931 H   0  0  0  0  0  0  0  0  0  0  0  0
   -2.1706   -0.0955    0.9968 H   0  0  0  0  0  0  0  0  0  0  0  0
    2.7211   -0.3474    0.5557 H   0  0  0  0  0  0  0  0  0  0  0  0
    1.9169   -1.9026    0.1413 H   0  0  0  0  0  0  0  0  0  0  0  0
    2.0464   -0.5961   -1.1023 H   0  0  0  0  0  0  0  0  0  0  0  0
    1.3781    1.8494    0.5815 H   0  0  0  0  0  0  0  0  0  0  0  0
   -0.5144    3.0064   -0.3083 H   0  0  0  0  0  0  0  0  0  0  0  0
  1  4  1  0
  1  2  1  0
  1  5  1  0
  1  8  1  0
  2  9  1  0
  2  3  1  0
  2 10  1  0
  3  7  1  0
  3 12  1  0
  3 11  1  0
  4 13  1  0
  4 15  1  0
  4 14  1  0
  5 16  1  0
  5  6  2  0
  6  7  1  0
  6 17  1  0
M  RAD  1   7   3
M  END
