
     RDKit          3D

 19 19  0  0  0  0  0  0  0  0999 V2000
   -1.2152   -0.2499   -0.3670 C   0  0  0  0  0  0  0  0  0  0  0  0
   -0.7756    1.2237   -0.4682 C   0  0  0  0  0  0  0  0  0  0  0  0
    0.7454    1.2332   -0.2810 C   0  0  0  0  0  0  0  0  0  0  0  0
   -2.1750   -0.4931    0.8003 C   0  0  0  0  0  0  0  0  0  0  0  0
    2.5107   -0.6915    0.0728 C   0  0  0  0  0  0  0  0  0  0  0  0
    1.1088   -0.2007   -0.1223 C   0  0  0  0  0  0  0  0  0  0  0  0
    0.0557   -1.0011   -0.1685 C   0  0  0  0  0  0  0  0  0  0  0  0
   -1.6919   -0.5783   -1.3165 H   0  0  0  0  0  0  0  0  0  0  0  0
   -1.0370    1.6289   -1.4705 H   0  0  0  0  0  0  0  0  0  0  0  0
   -1.2604    1.8634    0.3025 H   0  0  0  0  0  0  0  0  0  0  0  0
    1.2539    1.6614   -1.1717 H   0  0  0  0  0  0  0  0  0  0  0  0
    1.0305    1.8005    0.6312 H   0  0  0  0  0  0  0  0  0  0  0  0
   -2.4440   -1.5697    0.8533 H   0  0  0  0  0  0  0  0  0  0  0  0
   -1.7091   -0.1907    1.7634 H   0  0  0  0  0  0  0  0  0  0  0  0
   -3.1064    0.0931    0.6508 H   0  0  0  0  0  0  0  0  0  0  0  0
    3.2205    0.1623    0.0788 H   0  0  0  0  0  0  0  0  0  0  0  0
    2.5887   -1.2293    1.0411 H   0  0  0  0  0  0  0  0  0  0  0  0
    2.7856   -1.3805   -0.7532 H   0  0  0  0  0  0  0  0  0  0  0  0
    0.1150   -2.0816   -0.0753 H   0  0  0  0  0  0  0  0  0  0  0  0
  1  7  1  0
  1  2  1  0
  1  8  1  0
  1  4  1  0
  2 10  1  0
  2  3  1  0
  2  9  1  0
  3 12  1  0
  3 11  1  0
  3  6  1  0
  4 15  1  0
  4 13  1  0
  4 14  1  0
  5 18  1  0
  5 16  1  0
  5 17  1  0
  5  6  1  0
  6  7  2  0
  7 19  1  0
M  END
