
     RDKit          3D

 22 22  0  0  0  0  0  0  0  0999 V2000
   -1.8384   -0.1901    0.0356 C   0  0  0  0  0  0  0  0  0  0  0  0
    0.5557    1.6866    0.5138 C   0  0  0  0  0  0  0  0  0  0  0  0
   -1.6821    1.1838   -0.5616 C   0  0  0  0  0  0  0  0  0  0  0  0
   -0.6348    2.0047   -0.3524 C   0  0  0  0  0  0  0  0  0  0  0  0
   -1.2046   -1.2236   -0.8555 C   0  0  0  0  0  0  0  0  0  0  0  0
    1.6178    0.9888   -0.2918 C   0  0  0  0  0  0  0  0  0  0  0  0
   -0.1892   -2.0151   -0.4907 C   0  0  0  0  0  0  0  0  0  0  0  0
    2.0676   -0.2460   -0.0400 C   0  0  0  0  0  0  0  0  0  0  0  0
    0.4808   -1.9173    0.8164 C   0  0  0  0  0  0  0  0  0  0  0  0
    1.5194   -1.1032    1.0239 C   0  0  0  0  0  0  0  0  0  0  0  0
   -1.4692   -0.2234    1.0796 H   0  0  0  0  0  0  0  0  0  0  0  0
   -2.9233   -0.4199    0.0934 H   0  0  0  0  0  0  0  0  0  0  0  0
    0.9862    2.6446    0.8742 H   0  0  0  0  0  0  0  0  0  0  0  0
    0.2580    1.1305    1.4246 H   0  0  0  0  0  0  0  0  0  0  0  0
   -2.4771    1.5337   -1.2142 H   0  0  0  0  0  0  0  0  0  0  0  0
   -1.6124   -1.3436   -1.8521 H   0  0  0  0  0  0  0  0  0  0  0  0
   -0.6427    2.9716   -0.8478 H   0  0  0  0  0  0  0  0  0  0  0  0
    2.0573    1.5331   -1.1192 H   0  0  0  0  0  0  0  0  0  0  0  0
    0.1165   -2.5296    1.6313 H   0  0  0  0  0  0  0  0  0  0  0  0
    0.1897   -2.7392   -1.2007 H   0  0  0  0  0  0  0  0  0  0  0  0
    1.9789   -1.0696    2.0033 H   0  0  0  0  0  0  0  0  0  0  0  0
    2.8461   -0.6569   -0.6701 H   0  0  0  0  0  0  0  0  0  0  0  0
  1 11  1  0
  1  5  1  0
  1 12  1  0
  1  3  1  0
  2 14  1  0
  2 13  1  0
  2  6  1  0
  2  4  1  0
  3 15  1  0
  3  4  2  0
  4 17  1  0
  5 16  1  0
  5  7  2  0
  6 18  1  0
  6  8  2  0
  7 20  1  0
  7  9  1  0
  8 10  1  0
  8 22  1  0
  9 10  2  0
  9 19  1  0
 10 21  1  0
M  END
