
     RDKit          3D

 17 17  0  0  0  0  0  0  0  0999 V2000
   -0.6991   -0.3204   -0.7056 C   0  0  0  0  0  0  0  0  0  0  0  0
    0.2861    0.1672    0.3002 C   0  0  0  0  0  0  0  0  0  0  0  0
   -1.7238   -1.2023   -0.0114 C   0  0  0  0  0  0  0  0  0  0  0  0
   -1.0597    1.1064   -0.8005 C   0  0  0  0  0  0  0  0  0  0  0  0
   -0.7118    1.2668    0.4834 C   0  0  0  0  0  0  0  0  0  0  0  0
    1.5926    0.6436   -0.2027 C   0  0  0  0  0  0  0  0  0  0  0  0
    2.6504   -0.1702   -0.1607 C   0  0  0  0  0  0  0  0  0  0  0  0
   -0.3325   -0.7078   -1.6603 H   0  0  0  0  0  0  0  0  0  0  0  0
    0.4215   -0.5017    1.1574 H   0  0  0  0  0  0  0  0  0  0  0  0
   -2.3279   -1.7925   -0.7191 H   0  0  0  0  0  0  0  0  0  0  0  0
   -2.4054   -0.6027    0.6441 H   0  0  0  0  0  0  0  0  0  0  0  0
   -1.1086   -1.9148    0.5966 H   0  0  0  0  0  0  0  0  0  0  0  0
    1.8199    1.7054   -0.0610 H   0  0  0  0  0  0  0  0  0  0  0  0
   -1.2724    1.8444   -1.5713 H   0  0  0  0  0  0  0  0  0  0  0  0
   -1.3835    1.4550    1.3278 H   0  0  0  0  0  0  0  0  0  0  0  0
    2.6381   -1.1543    0.2785 H   0  0  0  0  0  0  0  0  0  0  0  0
    3.6162    0.1778   -0.5423 H   0  0  0  0  0  0  0  0  0  0  0  0
  1  3  1  0
  1  2  1  0
  1  4  1  0
  1  8  1  0
  2  6  1  0
  2  9  1  0
  2  5  1  0
  3 12  1  0
  3 11  1  0
  3 10  1  0
  4  5  2  0
  4 14  1  0
  5 15  1  0
  6 13  1  0
  6  7  2  3
  7 17  1  0
  7 16  1  0
M  END
