
     RDKit          3D

 19 19  0  0  0  0  0  0  0  0999 V2000
    3.4764   -0.5201   -0.0673 C   0  0  0  0  0  0  0  0  0  0  0  0
   -0.3070    0.2472    0.0741 C   0  0  0  0  0  0  0  0  0  0  0  0
    1.9968   -0.6525   -0.2365 C   0  0  0  0  0  0  0  0  0  0  0  0
    1.1694    0.2979    0.2143 C   0  0  0  0  0  0  0  0  0  0  0  0
   -1.0365    1.4410    0.2134 C   0  0  0  0  0  0  0  0  0  0  0  0
   -1.0081   -0.9543   -0.1600 C   0  0  0  0  0  0  0  0  0  0  0  0
   -2.4299    1.4407    0.0978 C   0  0  0  0  0  0  0  0  0  0  0  0
   -3.1119    0.2476   -0.1484 C   0  0  0  0  0  0  0  0  0  0  0  0
   -2.4022   -0.9483   -0.2738 C   0  0  0  0  0  0  0  0  0  0  0  0
    3.7311   -0.4677    1.0123 H   0  0  0  0  0  0  0  0  0  0  0  0
    3.8363    0.3986   -0.5772 H   0  0  0  0  0  0  0  0  0  0  0  0
    3.9859   -1.3999   -0.5133 H   0  0  0  0  0  0  0  0  0  0  0  0
    1.6236   -1.5250   -0.7543 H   0  0  0  0  0  0  0  0  0  0  0  0
   -0.5261    2.3773    0.4044 H   0  0  0  0  0  0  0  0  0  0  0  0
   -2.9810    2.3665    0.2004 H   0  0  0  0  0  0  0  0  0  0  0  0
   -4.1907    0.2488   -0.2360 H   0  0  0  0  0  0  0  0  0  0  0  0
   -0.4947   -1.9025   -0.2333 H   0  0  0  0  0  0  0  0  0  0  0  0
    1.6020    1.1787    0.6768 H   0  0  0  0  0  0  0  0  0  0  0  0
   -2.9335   -1.8742   -0.4528 H   0  0  0  0  0  0  0  0  0  0  0  0
  1 12  1  0
  1 11  1  0
  1 10  1  0
  1  3  1  0
  2  4  1  0
  2  5  2  0
  2  6  1  0
  3  4  2  3
  3 13  1  0
  4 18  1  0
  5  7  1  0
  5 14  1  0
  6  9  2  0
  6 17  1  0
  7  8  2  0
  7 15  1  0
  8  9  1  0
  8 16  1  0
  9 19  1  0
M  END
