
     RDKit          3D

 21 21  0  0  0  0  0  0  0  0999 V2000
   -0.0805    0.2595   -0.4930 C   0  0  0  0  0  0  0  0  0  0  0  0
    0.6523   -1.0137   -0.8175 C   0  0  0  0  0  0  0  0  0  0  0  0
   -1.7905   -0.5272    1.3075 C   0  0  0  0  0  0  0  0  0  0  0  0
   -1.4691   -0.0045   -0.0599 C   0  0  0  0  0  0  0  0  0  0  0  0
    0.6694    1.1185    0.4644 C   0  0  0  0  0  0  0  0  0  0  0  0
    2.0509   -1.0155   -0.2955 C   0  0  0  0  0  0  0  0  0  0  0  0
    1.9519    1.3308    0.1745 C   0  0  0  0  0  0  0  0  0  0  0  0
    2.7189    0.1355   -0.1969 C   0  0  0  0  0  0  0  0  0  0  0  0
   -2.5338    0.4020   -0.7644 C   0  0  0  0  0  0  0  0  0  0  0  0
   -0.1469    0.8501   -1.4408 H   0  0  0  0  0  0  0  0  0  0  0  0
    0.7192   -1.1816   -1.9226 H   0  0  0  0  0  0  0  0  0  0  0  0
    0.0501   -1.8481   -0.4281 H   0  0  0  0  0  0  0  0  0  0  0  0
   -2.6897   -1.1845    1.2228 H   0  0  0  0  0  0  0  0  0  0  0  0
   -0.9307   -1.0255    1.7753 H   0  0  0  0  0  0  0  0  0  0  0  0
   -2.0916    0.3701    1.9042 H   0  0  0  0  0  0  0  0  0  0  0  0
    0.1345    1.8376    1.0849 H   0  0  0  0  0  0  0  0  0  0  0  0
    2.4961   -1.9426    0.0690 H   0  0  0  0  0  0  0  0  0  0  0  0
    2.4743    2.2448    0.4466 H   0  0  0  0  0  0  0  0  0  0  0  0
    3.8066    0.1319   -0.1084 H   0  0  0  0  0  0  0  0  0  0  0  0
   -2.9017   -0.1685   -1.6056 H   0  0  0  0  0  0  0  0  0  0  0  0
   -3.0896    1.2308   -0.3166 H   0  0  0  0  0  0  0  0  0  0  0  0
  1  5  1  0
  1  4  1  0
  1  2  1  0
  1 10  1  0
  2  6  1  0
  2 12  1  0
  2 11  1  0
  3 15  1  0
  3 14  1  0
  3  4  1  0
  3 13  1  0
  4  9  2  3
  5 16  1  0
  5  7  2  0
  6  8  2  0
  6 17  1  0
  7 18  1  0
  7  8  1  0
  8 19  1  0
  9 21  1  0
  9 20  1  0
M  END
