
     RDKit          3D

 20 21  0  0  0  0  0  0  0  0999 V2000
   -2.2530   -0.5584   -0.4359 C   0  0  0  0  0  0  0  0  0  0  0  0
   -2.0216    0.7203    0.3603 C   0  0  0  0  0  0  0  0  0  0  0  0
    0.1848   -0.7336   -0.2190 C   0  0  0  0  0  0  0  0  0  0  0  0
    0.2907    0.6285   -0.4554 C   0  0  0  0  0  0  0  0  0  0  0  0
   -0.9931   -1.3512   -0.3141 C   0  0  0  0  0  0  0  0  0  0  0  0
   -0.8119    1.3507   -0.2553 C   0  0  0  0  0  0  0  0  0  0  0  0
    1.3440   -1.4374    0.0760 C   0  0  0  0  0  0  0  0  0  0  0  0
    1.5394    1.2334   -0.3931 C   0  0  0  0  0  0  0  0  0  0  0  0
    2.5331   -0.7873    0.3809 C   0  0  0  0  0  0  0  0  0  0  0  0
    2.6611    0.5643    0.0828 C   0  0  0  0  0  0  0  0  0  0  0  0
   -2.4572   -0.2364   -1.4690 H   0  0  0  0  0  0  0  0  0  0  0  0
   -3.1160   -1.0621    0.0327 H   0  0  0  0  0  0  0  0  0  0  0  0
   -1.8515    0.4437    1.4182 H   0  0  0  0  0  0  0  0  0  0  0  0
   -2.8657    1.4185    0.2737 H   0  0  0  0  0  0  0  0  0  0  0  0
   -1.0541   -2.2965    0.2296 H   0  0  0  0  0  0  0  0  0  0  0  0
   -0.7261    2.4102   -0.4375 H   0  0  0  0  0  0  0  0  0  0  0  0
    1.3260   -2.5195    0.2131 H   0  0  0  0  0  0  0  0  0  0  0  0
    3.1606   -1.1460    1.1989 H   0  0  0  0  0  0  0  0  0  0  0  0
    1.6262    2.2209   -0.8009 H   0  0  0  0  0  0  0  0  0  0  0  0
    3.4840    1.1380    0.5139 H   0  0  0  0  0  0  0  0  0  0  0  0
  1 11  1  0
  1  2  1  0
  1 12  1  0
  1  5  1  0
  2  6  1  0
  2 14  1  0
  2 13  1  0
  3  4  1  0
  3  7  1  0
  3  5  2  0
  4  6  2  0
  4  8  1  0
  5 15  1  0
  6 16  1  0
  7  9  2  0
  7 17  1  0
  8 10  2  0
  8 19  1  0
  9 10  1  0
  9 18  1  0
 10 20  1  0
M  END
