
     RDKit          3D

 19 19  0  0  0  0  0  0  0  0999 V2000
    1.2060   -0.5393   -0.3239 C   0  0  0  0  0  0  0  0  0  0  0  0
   -0.8249   -0.3120    0.0757 C   0  0  0  0  0  0  0  0  0  0  0  0
    0.4014   -0.5075    0.9603 C   0  0  0  0  0  0  0  0  0  0  0  0
    0.1236    0.3380   -0.9268 C   0  0  0  0  0  0  0  0  0  0  0  0
    2.5724    0.0704   -0.2426 C   0  0  0  0  0  0  0  0  0  0  0  0
   -1.8472    0.5927    0.6432 C   0  0  0  0  0  0  0  0  0  0  0  0
   -3.0929    0.4783    0.1742 C   0  0  0  0  0  0  0  0  0  0  0  0
    1.2405   -1.5509   -0.7729 H   0  0  0  0  0  0  0  0  0  0  0  0
   -1.1901   -1.2908   -0.2722 H   0  0  0  0  0  0  0  0  0  0  0  0
    0.5617    0.3991    1.5655 H   0  0  0  0  0  0  0  0  0  0  0  0
    0.4104   -1.4304    1.5560 H   0  0  0  0  0  0  0  0  0  0  0  0
    0.3004    1.4025   -0.7256 H   0  0  0  0  0  0  0  0  0  0  0  0
   -0.0575    0.0712   -1.9792 H   0  0  0  0  0  0  0  0  0  0  0  0
    2.9925    0.0563   -1.2794 H   0  0  0  0  0  0  0  0  0  0  0  0
    3.1988   -0.5888    0.3786 H   0  0  0  0  0  0  0  0  0  0  0  0
    2.5391    1.1011    0.1676 H   0  0  0  0  0  0  0  0  0  0  0  0
   -1.7343    1.1166    1.5974 H   0  0  0  0  0  0  0  0  0  0  0  0
   -3.4752   -0.5412    0.0737 H   0  0  0  0  0  0  0  0  0  0  0  0
   -3.3246    1.1347   -0.6698 H   0  0  0  0  0  0  0  0  0  0  0  0
  1  8  1  0
  1  4  1  0
  1  5  1  0
  1  3  1  0
  2  9  1  0
  2  6  1  0
  2  4  1  0
  2  3  1  0
  3 10  1  0
  3 11  1  0
  4 12  1  0
  4 13  1  0
  5 14  1  0
  5 16  1  0
  5 15  1  0
  6 17  1  0
  6  7  2  3
  7 18  1  0
  7 19  1  0
M  END
