
     RDKit          3D

 22 22  0  0  0  0  0  0  0  0999 V2000
   -1.4284    0.8332   -0.1339 C   0  0  0  0  0  0  0  0  0  0  0  0
   -0.3630    0.3236   -1.1143 C   0  0  0  0  0  0  0  0  0  0  0  0
   -1.4530    0.0346    1.1349 C   0  0  0  0  0  0  0  0  0  0  0  0
   -2.8085    0.5795   -0.6563 C   0  0  0  0  0  0  0  0  0  0  0  0
    1.0192    0.6254   -0.6059 C   0  0  0  0  0  0  0  0  0  0  0  0
   -2.6267   -0.5551    1.2888 C   0  0  0  0  0  0  0  0  0  0  0  0
   -3.4775   -0.2130    0.1647 C   0  0  0  0  0  0  0  0  0  0  0  0
    1.8961   -0.3435   -0.3310 C   0  0  0  0  0  0  0  0  0  0  0  0
    3.2420   -0.0248    0.1713 C   0  0  0  0  0  0  0  0  0  0  0  0
    4.1173   -0.9859    0.4516 C   0  0  0  0  0  0  0  0  0  0  0  0
   -1.2946    1.9153    0.0841 H   0  0  0  0  0  0  0  0  0  0  0  0
   -0.4886    0.8393   -2.0907 H   0  0  0  0  0  0  0  0  0  0  0  0
   -0.5003   -0.7674   -1.2919 H   0  0  0  0  0  0  0  0  0  0  0  0
   -0.6341   -0.0492    1.8377 H   0  0  0  0  0  0  0  0  0  0  0  0
   -3.2147    0.9878   -1.5726 H   0  0  0  0  0  0  0  0  0  0  0  0
    1.2956    1.6637   -0.4607 H   0  0  0  0  0  0  0  0  0  0  0  0
    1.6161   -1.3814   -0.4732 H   0  0  0  0  0  0  0  0  0  0  0  0
   -2.9009   -1.1858    2.1238 H   0  0  0  0  0  0  0  0  0  0  0  0
   -4.4964   -0.5446    0.0159 H   0  0  0  0  0  0  0  0  0  0  0  0
    3.5332    1.0088    0.3189 H   0  0  0  0  0  0  0  0  0  0  0  0
    3.8653   -2.0308    0.3183 H   0  0  0  0  0  0  0  0  0  0  0  0
    5.1020   -0.7297    0.8204 H   0  0  0  0  0  0  0  0  0  0  0  0
  1  3  1  0
  1 11  1  0
  1  4  1  0
  1  2  1  0
  2  5  1  0
  2 13  1  0
  2 12  1  0
  3  6  2  0
  3 14  1  0
  4  7  2  0
  4 15  1  0
  5  8  2  3
  5 16  1  0
  6  7  1  0
  6 18  1  0
  7 19  1  0
  8 17  1  0
  8  9  1  0
  9 10  2  3
  9 20  1  0
 10 21  1  0
 10 22  1  0
M  END
