
     RDKit          3D

 17 18  0  0  0  0  0  0  0  0999 V2000
   -0.5743    0.0983    0.0022 C   0  0  0  0  0  0  0  0  0  0  0  0
    0.4699   -0.8872    0.2988 C   0  0  0  0  0  0  0  0  0  0  0  0
   -0.2137   -1.0282   -1.0008 C   0  0  0  0  0  0  0  0  0  0  0  0
    1.7670   -0.1278    0.2948 C   0  0  0  0  0  0  0  0  0  0  0  0
   -1.9687    0.0073    0.5546 C   0  0  0  0  0  0  0  0  0  0  0  0
    0.1027    1.3906   -0.1588 C   0  0  0  0  0  0  0  0  0  0  0  0
    1.4186    1.2853   -0.0058 C   0  0  0  0  0  0  0  0  0  0  0  0
    0.3083   -1.6862    1.0355 H   0  0  0  0  0  0  0  0  0  0  0  0
    0.1768   -0.6073   -1.9396 H   0  0  0  0  0  0  0  0  0  0  0  0
   -0.9790   -1.8150   -1.1583 H   0  0  0  0  0  0  0  0  0  0  0  0
    2.3281   -0.1949    1.2407 H   0  0  0  0  0  0  0  0  0  0  0  0
    2.3930   -0.5786   -0.5157 H   0  0  0  0  0  0  0  0  0  0  0  0
   -2.6210    0.5496   -0.1768 H   0  0  0  0  0  0  0  0  0  0  0  0
   -2.2270   -1.0815    0.5799 H   0  0  0  0  0  0  0  0  0  0  0  0
   -2.0709    0.3856    1.5832 H   0  0  0  0  0  0  0  0  0  0  0  0
    2.1020    1.9382   -0.5559 H   0  0  0  0  0  0  0  0  0  0  0  0
   -0.4116    2.3519   -0.0777 H   0  0  0  0  0  0  0  0  0  0  0  0
  1  6  1  0
  1  5  1  0
  1  2  1  0
  1  3  1  0
  2  4  1  0
  2  3  1  0
  2  8  1  0
  3 10  1  0
  3  9  1  0
  4 11  1  0
  4  7  1  0
  4 12  1  0
  5 13  1  0
  5 15  1  0
  5 14  1  0
  6 17  1  0
  6  7  2  0
  7 16  1  0
M  END
