
     RDKit          3D

 21 21  0  0  0  0  0  0  0  0999 V2000
    1.3437    0.1219   -0.3076 C   0  0  0  0  0  0  0  0  0  0  0  0
    2.2263   -1.0687   -0.2331 C   0  0  0  0  0  0  0  0  0  0  0  0
    1.4625    1.0469    0.8897 C   0  0  0  0  0  0  0  0  0  0  0  0
   -0.0883   -0.1505   -0.5136 C   0  0  0  0  0  0  0  0  0  0  0  0
   -0.8513    0.9602   -0.8626 C   0  0  0  0  0  0  0  0  0  0  0  0
   -0.7039   -1.0262    0.3714 C   0  0  0  0  0  0  0  0  0  0  0  0
   -2.2068    1.0063   -0.6837 C   0  0  0  0  0  0  0  0  0  0  0  0
   -2.0331   -0.8652    0.7424 C   0  0  0  0  0  0  0  0  0  0  0  0
   -2.8444    0.0447    0.0803 C   0  0  0  0  0  0  0  0  0  0  0  0
    1.6717    0.7372   -1.1845 H   0  0  0  0  0  0  0  0  0  0  0  0
    1.7589   -2.0017    0.0998 H   0  0  0  0  0  0  0  0  0  0  0  0
    3.0249   -0.8437    0.5202 H   0  0  0  0  0  0  0  0  0  0  0  0
    2.7672   -1.2808   -1.1784 H   0  0  0  0  0  0  0  0  0  0  0  0
    2.5131    1.2956    1.1168 H   0  0  0  0  0  0  0  0  0  0  0  0
    0.8414    1.9442    0.6581 H   0  0  0  0  0  0  0  0  0  0  0  0
    0.9522    0.5416    1.7385 H   0  0  0  0  0  0  0  0  0  0  0  0
   -0.4095    1.6957   -1.5377 H   0  0  0  0  0  0  0  0  0  0  0  0
   -0.2343   -2.0086    0.4378 H   0  0  0  0  0  0  0  0  0  0  0  0
   -2.7971    1.5765   -1.4018 H   0  0  0  0  0  0  0  0  0  0  0  0
   -2.5099   -1.5484    1.4225 H   0  0  0  0  0  0  0  0  0  0  0  0
   -3.8833   -0.1769   -0.1744 H   0  0  0  0  0  0  0  0  0  0  0  0
  1  3  1  0
  1 10  1  0
  1  2  1  0
  1  4  1  0
  2 11  1  0
  2 12  1  0
  2 13  1  0
  3 14  1  0
  3 15  1  0
  3 16  1  0
  4  5  2  0
  4  6  1  0
  5 17  1  0
  5  7  1  0
  6 18  1  0
  6  8  2  0
  7  9  2  0
  7 19  1  0
  8  9  1  0
  8 20  1  0
  9 21  1  0
M  END
