
     RDKit          3D

 22 23  0  0  0  0  0  0  0  0999 V2000
    0.4974    0.7519    0.4467 C   0  0  0  0  0  0  0  0  0  0  0  0
    0.3322   -0.7245    0.6272 C   0  0  0  0  0  0  0  0  0  0  0  0
   -0.7498    1.1965   -0.2833 C   0  0  0  0  0  0  0  0  0  0  0  0
   -3.1262    0.0703   -0.2663 C   0  0  0  0  0  0  0  0  0  0  0  0
   -1.6617    0.0296   -0.0477 C   0  0  0  0  0  0  0  0  0  0  0  0
   -0.8810   -1.0473   -0.1949 C   0  0  0  0  0  0  0  0  0  0  0  0
    1.6541    1.1386   -0.3745 C   0  0  0  0  0  0  0  0  0  0  0  0
    1.4942   -1.5221    0.2089 C   0  0  0  0  0  0  0  0  0  0  0  0
    2.5676   -1.0470   -0.3877 C   0  0  0  0  0  0  0  0  0  0  0  0
    2.6544    0.3613   -0.7096 C   0  0  0  0  0  0  0  0  0  0  0  0
    0.5183    1.2950    1.4247 H   0  0  0  0  0  0  0  0  0  0  0  0
    0.0688   -0.9419    1.6874 H   0  0  0  0  0  0  0  0  0  0  0  0
   -0.5834    1.3760   -1.3581 H   0  0  0  0  0  0  0  0  0  0  0  0
   -1.2084    2.0958    0.1462 H   0  0  0  0  0  0  0  0  0  0  0  0
   -3.4846    1.1092   -0.2375 H   0  0  0  0  0  0  0  0  0  0  0  0
   -3.3567   -0.3692   -1.2579 H   0  0  0  0  0  0  0  0  0  0  0  0
   -3.6817   -0.5421    0.4822 H   0  0  0  0  0  0  0  0  0  0  0  0
    1.3258   -2.5942    0.0882 H   0  0  0  0  0  0  0  0  0  0  0  0
   -1.1549   -2.0074   -0.6436 H   0  0  0  0  0  0  0  0  0  0  0  0
    1.6954    2.1749   -0.7010 H   0  0  0  0  0  0  0  0  0  0  0  0
    3.6008    0.8358   -0.9754 H   0  0  0  0  0  0  0  0  0  0  0  0
    3.4793   -1.6393   -0.4776 H   0  0  0  0  0  0  0  0  0  0  0  0
  1 11  1  0
  1  7  1  0
  1  2  1  0
  1  3  1  0
  2  8  1  0
  2 12  1  0
  2  6  1  0
  3  5  1  0
  3 14  1  0
  3 13  1  0
  4  5  1  0
  4 16  1  0
  4 15  1  0
  4 17  1  0
  5  6  2  0
  6 19  1  0
  7 20  1  0
  7 10  2  0
  8 18  1  0
  8  9  2  0
  9 10  1  0
  9 22  1  0
 10 21  1  0
M  END
