
     RDKit          3D

 22 23  0  0  0  0  0  0  0  0999 V2000
    0.3135    0.7150   -0.7118 C   0  0  0  0  0  0  0  0  0  0  0  0
   -0.9890   -1.2696   -0.0152 C   0  0  0  0  0  0  0  0  0  0  0  0
    2.7891   -0.5013    0.0702 C   0  0  0  0  0  0  0  0  0  0  0  0
   -3.2727    0.0251    0.2741 C   0  0  0  0  0  0  0  0  0  0  0  0
    0.3687   -0.7328   -0.3243 C   0  0  0  0  0  0  0  0  0  0  0  0
   -1.8105   -0.0194   -0.0468 C   0  0  0  0  0  0  0  0  0  0  0  0
   -1.1005    1.0598   -0.3860 C   0  0  0  0  0  0  0  0  0  0  0  0
    1.5176   -1.3183    0.0519 C   0  0  0  0  0  0  0  0  0  0  0  0
    1.3254    1.5125    0.0759 C   0  0  0  0  0  0  0  0  0  0  0  0
    2.4964    0.9446    0.4227 C   0  0  0  0  0  0  0  0  0  0  0  0
    0.4981    0.8356   -1.8006 H   0  0  0  0  0  0  0  0  0  0  0  0
   -1.0212   -1.7236    0.9987 H   0  0  0  0  0  0  0  0  0  0  0  0
   -1.3211   -1.9880   -0.7939 H   0  0  0  0  0  0  0  0  0  0  0  0
    3.2602   -0.5396   -0.9345 H   0  0  0  0  0  0  0  0  0  0  0  0
    3.4963   -0.9301    0.8110 H   0  0  0  0  0  0  0  0  0  0  0  0
   -3.4462    0.6971    1.1407 H   0  0  0  0  0  0  0  0  0  0  0  0
   -3.6422   -0.9906    0.5280 H   0  0  0  0  0  0  0  0  0  0  0  0
   -3.8379    0.4035   -0.6033 H   0  0  0  0  0  0  0  0  0  0  0  0
    1.1407    2.5578    0.3054 H   0  0  0  0  0  0  0  0  0  0  0  0
   -1.5218    2.0565   -0.4775 H   0  0  0  0  0  0  0  0  0  0  0  0
    1.5138   -2.3230    0.4640 H   0  0  0  0  0  0  0  0  0  0  0  0
    3.2432    1.5289    0.9512 H   0  0  0  0  0  0  0  0  0  0  0  0
  1 11  1  0
  1  5  1  0
  1  9  1  0
  1  7  1  0
  2 12  1  0
  2 13  1  0
  2  5  1  0
  2  6  1  0
  3  8  1  0
  3 14  1  0
  3 15  1  0
  3 10  1  0
  4 18  1  0
  4 16  1  0
  4 17  1  0
  4  6  1  0
  5  8  2  0
  6  7  2  0
  7 20  1  0
  8 21  1  0
  9 10  2  0
  9 19  1  0
 10 22  1  0
M  END
