
     RDKit          3D

 17 17  0  0  0  0  0  0  0  0999 V2000
    0.4982    0.0236    0.4345 C   0  0  0  0  0  0  0  0  0  0  0  0
   -0.0650    1.3156   -0.2938 C   0  0  0  0  0  0  0  0  0  0  0  0
   -0.3112   -1.3010    0.1066 C   0  0  0  0  0  0  0  0  0  0  0  0
    1.9870   -0.1624    0.1343 C   0  0  0  0  0  0  0  0  0  0  0  0
   -1.5814    1.3532   -0.3273 C   0  0  0  0  0  0  0  0  0  0  0  0
   -1.8094   -1.0698    0.0435 C   0  0  0  0  0  0  0  0  0  0  0  0
   -2.0611    0.1712   -0.1744 C   0  0  0  0  0  0  0  0  0  0  0  0
    0.3984    0.2004    1.5290 H   0  0  0  0  0  0  0  0  0  0  0  0
    0.3069    2.2237    0.2270 H   0  0  0  0  0  0  0  0  0  0  0  0
    0.3020    1.3464   -1.3429 H   0  0  0  0  0  0  0  0  0  0  0  0
    0.0147   -1.7078   -0.8755 H   0  0  0  0  0  0  0  0  0  0  0  0
   -0.0967   -2.0656    0.8834 H   0  0  0  0  0  0  0  0  0  0  0  0
    2.5525    0.7456    0.4337 H   0  0  0  0  0  0  0  0  0  0  0  0
    2.1453   -0.3433   -0.9503 H   0  0  0  0  0  0  0  0  0  0  0  0
    2.3856   -1.0280    0.7051 H   0  0  0  0  0  0  0  0  0  0  0  0
   -2.1445    2.1515   -0.7916 H   0  0  0  0  0  0  0  0  0  0  0  0
   -2.5213   -1.8532   -0.1788 H   0  0  0  0  0  0  0  0  0  0  0  0
  1  2  1  0
  1  8  1  0
  1  4  1  0
  1  3  1  0
  2 10  1  0
  2  9  1  0
  2  5  1  0
  3  6  1  0
  3 11  1  0
  3 12  1  0
  4 15  1  0
  4 14  1  0
  4 13  1  0
  5  7  2  0
  5 16  1  0
  6  7  2  0
  6 17  1  0
M  END
