
     RDKit          3D

 17 17  0  0  0  0  0  0  0  0999 V2000
    0.4649   -0.3460    0.0284 C   0  0  0  0  0  0  0  0  0  0  0  0
   -0.4189    0.6623    0.7519 C   0  0  0  0  0  0  0  0  0  0  0  0
   -1.8309    0.1370    0.5774 C   0  0  0  0  0  0  0  0  0  0  0  0
   -1.8359   -0.5773   -0.7665 C   0  0  0  0  0  0  0  0  0  0  0  0
    1.7010    0.2993   -0.5407 C   0  0  0  0  0  0  0  0  0  0  0  0
    2.9284   -0.0846   -0.1782 C   0  0  0  0  0  0  0  0  0  0  0  0
   -0.3902   -0.9258   -1.0859 C   0  0  0  0  0  2  0  0  0  0  0  0
    0.7227   -1.1713    0.7299 H   0  0  0  0  0  0  0  0  0  0  0  0
   -0.1473    0.7415    1.8270 H   0  0  0  0  0  0  0  0  0  0  0  0
   -0.3471    1.6690    0.2808 H   0  0  0  0  0  0  0  0  0  0  0  0
   -2.5762    0.9613    0.6032 H   0  0  0  0  0  0  0  0  0  0  0  0
   -2.0598   -0.5899    1.3882 H   0  0  0  0  0  0  0  0  0  0  0  0
   -2.2244    0.0992   -1.5576 H   0  0  0  0  0  0  0  0  0  0  0  0
   -2.4561   -1.4977   -0.7273 H   0  0  0  0  0  0  0  0  0  0  0  0
    1.5933    1.1006   -1.2669 H   0  0  0  0  0  0  0  0  0  0  0  0
    3.0789   -0.8803    0.5448 H   0  0  0  0  0  0  0  0  0  0  0  0
    3.7974    0.4027   -0.6084 H   0  0  0  0  0  0  0  0  0  0  0  0
  1  7  1  0
  1  8  1  0
  1  5  1  0
  1  2  1  0
  2  3  1  0
  2 10  1  0
  2  9  1  0
  3 11  1  0
  3  4  1  0
  3 12  1  0
  4  7  1  0
  4 13  1  0
  4 14  1  0
  5 15  1  0
  5  6  2  3
  6 16  1  0
  6 17  1  0
M  RAD  1   7   3
M  END
