
     RDKit          3D

 21 22  0  0  0  0  0  0  0  0999 V2000
    1.9492    1.0215   -0.9311 O   0  0  0  0  0  0  0  0  0  0  0  0
    3.1444    0.7265   -0.4509 O   0  0  0  0  0  0  0  0  0  0  0  0
    0.7236    0.0737    0.9358 C   0  0  0  0  0  0  0  0  0  0  0  0
   -0.7273   -0.1544    1.3697 C   0  0  0  0  0  0  0  0  0  0  0  0
    1.0900   -0.0349   -0.5667 C   0  0  0  0  0  0  0  0  0  0  0  0
   -0.1409    1.2592    1.3389 C   0  0  0  0  0  0  0  0  0  0  0  0
   -1.8019   -0.4077    0.2977 C   0  0  0  0  0  0  0  0  0  0  0  0
   -0.1165   -0.0391   -1.5189 C   0  0  0  0  0  0  0  0  0  0  0  0
   -1.2194   -0.9574   -1.0027 C   0  0  0  0  0  0  0  0  0  0  0  0
   -0.8820   -0.5439    2.3985 H   0  0  0  0  0  0  0  0  0  0  0  0
    1.4925   -0.1983    1.6902 H   0  0  0  0  0  0  0  0  0  0  0  0
    1.6036   -1.0158   -0.7082 H   0  0  0  0  0  0  0  0  0  0  0  0
   -2.0273   -1.0251   -1.7630 H   0  0  0  0  0  0  0  0  0  0  0  0
   -0.8167   -1.9809   -0.8361 H   0  0  0  0  0  0  0  0  0  0  0  0
    0.2134   -0.3960   -2.5188 H   0  0  0  0  0  0  0  0  0  0  0  0
   -0.5152    0.9904   -1.6527 H   0  0  0  0  0  0  0  0  0  0  0  0
   -2.3757    0.5229    0.0927 H   0  0  0  0  0  0  0  0  0  0  0  0
   -2.5253   -1.1497    0.6974 H   0  0  0  0  0  0  0  0  0  0  0  0
    0.1059    1.6713    2.3401 H   0  0  0  0  0  0  0  0  0  0  0  0
   -0.4667    1.9187    0.5073 H   0  0  0  0  0  0  0  0  0  0  0  0
    3.2922    1.3792    0.2808 H   0  0  0  0  0  0  0  0  0  0  0  0
  1  5  1  0
  1  2  1  0
  2 21  1  0
  3  5  1  0
  3  4  1  0
  3 11  1  0
  3  6  1  0
  4  7  1  0
  4 10  1  0
  4  6  1  0
  5  8  1  0
  5 12  1  0
  6 19  1  0
  6 20  1  0
  7 17  1  0
  7 18  1  0
  7  9  1  0
  8 16  1  0
  8  9  1  0
  8 15  1  0
  9 13  1  0
  9 14  1  0
M  END
