
     RDKit          3D

 22 23  0  0  0  0  0  0  0  0999 V2000
   -0.6142    0.8043   -0.1958 C   0  0  0  0  0  0  0  0  0  0  0  0
   -1.4093    0.1119   -1.3190 C   0  0  0  0  0  0  0  0  0  0  0  0
   -1.4679    0.6635    1.0787 C   0  0  0  0  0  0  0  0  0  0  0  0
    3.0555   -0.0556    0.0917 C   0  0  0  0  0  0  0  0  0  0  0  0
    0.7589    0.2018   -0.0237 C   0  0  0  0  0  0  0  0  0  0  0  0
    1.9016    0.8616   -0.1475 C   0  0  0  0  0  0  0  0  0  0  0  0
   -2.6627   -0.3386   -0.6610 C   0  0  0  0  0  0  0  0  0  0  0  0
   -2.6942   -0.0424    0.6262 C   0  0  0  0  0  0  0  0  0  0  0  0
    2.3557   -1.3456    0.3713 C   0  0  0  0  0  0  0  0  0  0  0  0
    1.0448   -1.1870    0.3028 C   0  0  0  0  0  0  0  0  0  0  0  0
   -0.5172    1.8864   -0.4424 H   0  0  0  0  0  0  0  0  0  0  0  0
   -1.6508    0.8294   -2.1324 H   0  0  0  0  0  0  0  0  0  0  0  0
   -0.8800   -0.7664   -1.7486 H   0  0  0  0  0  0  0  0  0  0  0  0
   -0.9685    0.0667    1.8728 H   0  0  0  0  0  0  0  0  0  0  0  0
   -1.7392    1.6616    1.4850 H   0  0  0  0  0  0  0  0  0  0  0  0
    3.6466    0.2732    0.9720 H   0  0  0  0  0  0  0  0  0  0  0  0
    3.6903   -0.1380   -0.8154 H   0  0  0  0  0  0  0  0  0  0  0  0
   -3.4663   -0.8563   -1.1744 H   0  0  0  0  0  0  0  0  0  0  0  0
   -3.5262   -0.2925    1.2763 H   0  0  0  0  0  0  0  0  0  0  0  0
    1.9842    1.9138   -0.3876 H   0  0  0  0  0  0  0  0  0  0  0  0
    2.8446   -2.2835    0.5990 H   0  0  0  0  0  0  0  0  0  0  0  0
    0.3141   -1.9685    0.4648 H   0  0  0  0  0  0  0  0  0  0  0  0
  1  3  1  0
  1  5  1  0
  1 11  1  0
  1  2  1  0
  2  7  1  0
  2 12  1  0
  2 13  1  0
  3 14  1  0
  3 15  1  0
  3  8  1  0
  4  9  1  0
  4 16  1  0
  4 17  1  0
  4  6  1  0
  5 10  1  0
  5  6  2  0
  6 20  1  0
  7  8  2  0
  7 18  1  0
  8 19  1  0
  9 10  2  0
  9 21  1  0
 10 22  1  0
M  END
