
     RDKit          3D

 10 10  0  0  0  0  0  0  0  0999 V2000
   -1.2281   -0.6300    0.1147 C   0  0  0  0  0  0  0  0  0  0  0  0
    1.4745    0.1246   -0.1354 C   0  0  0  0  0  0  0  0  0  0  0  0
   -0.0226    0.2044   -0.2155 C   0  0  0  0  0  0  0  0  0  0  0  0
   -1.2053    0.7846   -0.0003 C   0  0  0  0  0  0  0  0  0  0  0  0
   -1.5859   -1.2632   -0.7375 H   0  0  0  0  0  0  0  0  0  0  0  0
   -1.2201   -1.1963    1.0783 H   0  0  0  0  0  0  0  0  0  0  0  0
    1.7495    0.0410    0.9461 H   0  0  0  0  0  0  0  0  0  0  0  0
    1.9338    1.0188   -0.5733 H   0  0  0  0  0  0  0  0  0  0  0  0
    1.8230   -0.8313   -0.5812 H   0  0  0  0  0  0  0  0  0  0  0  0
   -1.7189    1.7476    0.1041 H   0  0  0  0  0  0  0  0  0  0  0  0
  1  4  1  0
  1  6  1  0
  1  3  1  0
  1  5  1  0
  2  8  1  0
  2  7  1  0
  2  9  1  0
  2  3  1  0
  3  4  2  0
  4 10  1  0
M  END
