
     RDKit          3D

 22 22  0  0  0  0  0  0  0  0999 V2000
   -3.4339   -0.3587    0.9769 C   0  0  0  0  0  0  0  0  0  0  0  0
    2.2892    0.6343   -1.1012 C   0  0  0  0  0  0  0  0  0  0  0  0
   -1.3015   -0.0190    0.1400 C   0  0  0  0  0  0  0  0  0  0  0  0
   -2.0736    0.2176    1.1905 C   0  0  0  0  0  0  0  0  0  0  0  0
   -3.2887   -0.9619   -0.3810 C   0  0  0  0  0  0  0  0  0  0  0  0
    0.8649    0.1706   -1.0339 C   0  0  0  0  0  0  0  0  0  0  0  0
    3.1425   -0.1499   -0.1424 C   0  0  0  0  0  0  0  0  0  0  0  0
   -2.0685   -0.7634   -0.8511 C   0  0  0  0  0  0  0  0  0  0  0  0
    0.1038    0.4194    0.0375 C   0  0  0  0  0  0  0  0  0  0  0  0
    3.8004    0.4377    0.8610 C   0  0  0  0  0  0  0  0  0  0  0  0
   -3.6572   -1.1385    1.7350 H   0  0  0  0  0  0  0  0  0  0  0  0
   -4.2063    0.4389    0.9756 H   0  0  0  0  0  0  0  0  0  0  0  0
    2.6770    0.4658   -2.1281 H   0  0  0  0  0  0  0  0  0  0  0  0
    2.3353    1.7274   -0.8988 H   0  0  0  0  0  0  0  0  0  0  0  0
   -1.7605    0.7532    2.0778 H   0  0  0  0  0  0  0  0  0  0  0  0
   -4.0680   -1.4902   -0.9143 H   0  0  0  0  0  0  0  0  0  0  0  0
    0.4653   -0.3659   -1.8841 H   0  0  0  0  0  0  0  0  0  0  0  0
    3.2252   -1.2253   -0.2715 H   0  0  0  0  0  0  0  0  0  0  0  0
    0.5307    0.9656    0.8715 H   0  0  0  0  0  0  0  0  0  0  0  0
   -1.7226   -1.1080   -1.8159 H   0  0  0  0  0  0  0  0  0  0  0  0
    4.4069   -0.1594    1.5342 H   0  0  0  0  0  0  0  0  0  0  0  0
    3.7395    1.5096    1.0223 H   0  0  0  0  0  0  0  0  0  0  0  0
  1 12  1  0
  1  4  1  0
  1  5  1  0
  1 11  1  0
  2  7  1  0
  2 13  1  0
  2 14  1  0
  2  6  1  0
  3  8  1  0
  3  9  1  0
  3  4  2  0
  4 15  1  0
  5  8  2  0
  5 16  1  0
  6  9  2  3
  6 17  1  0
  7 10  2  3
  7 18  1  0
  8 20  1  0
  9 19  1  0
 10 22  1  0
 10 21  1  0
M  END
