
     RDKit          3D

 21 21  0  0  0  0  0  0  0  0999 V2000
   -0.6671    1.7912   -0.8089 O   0  0  0  0  0  0  0  0  0  0  0  0
   -1.4245    2.7148   -0.2449 O   0  0  0  0  0  0  0  0  0  0  0  0
    0.5241   -0.2382   -0.3032 C   0  0  0  0  0  0  0  0  0  0  0  0
   -0.5767    0.7301    0.1136 C   0  0  0  0  0  0  0  0  0  0  0  0
    0.1171   -1.5721    0.3112 C   0  0  0  0  0  0  0  0  0  0  0  0
   -1.8497   -0.1154    0.1215 C   0  0  0  0  0  0  0  0  0  0  0  0
   -1.4086   -1.5609    0.3522 C   0  0  0  0  0  0  0  0  0  0  0  0
    1.8833    0.2121    0.1775 C   0  0  0  0  0  0  0  0  0  0  0  0
    2.8899    0.4452   -0.6696 C   0  0  0  0  0  0  0  0  0  0  0  0
    0.5111   -0.3473   -1.4133 H   0  0  0  0  0  0  0  0  0  0  0  0
   -0.3740    1.1046    1.1473 H   0  0  0  0  0  0  0  0  0  0  0  0
    0.5079   -1.6646    1.3498 H   0  0  0  0  0  0  0  0  0  0  0  0
    0.4985   -2.4233   -0.2941 H   0  0  0  0  0  0  0  0  0  0  0  0
   -1.8184   -2.2167   -0.4472 H   0  0  0  0  0  0  0  0  0  0  0  0
   -1.7719   -1.9294    1.3366 H   0  0  0  0  0  0  0  0  0  0  0  0
   -2.3696   -0.0384   -0.8595 H   0  0  0  0  0  0  0  0  0  0  0  0
   -2.5424    0.2244    0.9220 H   0  0  0  0  0  0  0  0  0  0  0  0
    2.0496    0.3532    1.2420 H   0  0  0  0  0  0  0  0  0  0  0  0
    3.8535    0.7688   -0.2897 H   0  0  0  0  0  0  0  0  0  0  0  0
    2.7655    0.3177   -1.7405 H   0  0  0  0  0  0  0  0  0  0  0  0
   -0.7977    3.4440   -0.0028 H   0  0  0  0  0  0  0  0  0  0  0  0
  1  2  1  0
  1  4  1  0
  2 21  1  0
  3  8  1  0
  3  5  1  0
  3 10  1  0
  3  4  1  0
  4  6  1  0
  4 11  1  0
  5 12  1  0
  5 13  1  0
  5  7  1  0
  6 16  1  0
  6  7  1  0
  6 17  1  0
  7 14  1  0
  7 15  1  0
  8  9  2  3
  8 18  1  0
  9 19  1  0
  9 20  1  0
M  END
