
     RDKit          3D

 21 21  0  0  0  0  0  0  0  0999 V2000
   -2.8613   -0.0066    0.7121 O   0  0  0  0  0  0  0  0  0  0  0  0
   -2.9878   -1.3184    0.6146 O   0  0  0  0  0  0  0  0  0  0  0  0
    1.7053   -1.0050    0.2138 C   0  0  0  0  0  0  0  0  0  0  0  0
    2.8338   -0.9802   -0.8048 C   0  0  0  0  0  0  0  0  0  0  0  0
    2.6628    0.1773    0.1634 C   0  0  0  0  0  0  0  0  0  0  0  0
   -1.8927    0.3774   -0.2352 C   0  0  0  0  0  0  0  0  0  0  0  0
   -2.0291    1.8741   -0.5008 C   0  0  0  0  0  0  0  0  0  0  0  0
    0.3426   -0.7176   -0.3478 C   0  0  0  0  0  0  0  0  0  0  0  0
   -0.5116    0.0865    0.3000 C   0  0  0  0  0  0  0  0  0  0  0  0
    1.8278   -1.6744    1.0916 H   0  0  0  0  0  0  0  0  0  0  0  0
    3.6861   -1.6492   -0.5616 H   0  0  0  0  0  0  0  0  0  0  0  0
    2.5442   -0.7388   -1.8505 H   0  0  0  0  0  0  0  0  0  0  0  0
    3.4175    0.1958    0.9777 H   0  0  0  0  0  0  0  0  0  0  0  0
    2.2760    1.1048   -0.3122 H   0  0  0  0  0  0  0  0  0  0  0  0
   -2.0665   -0.1451   -1.2069 H   0  0  0  0  0  0  0  0  0  0  0  0
   -3.0411    2.0936   -0.9027 H   0  0  0  0  0  0  0  0  0  0  0  0
   -1.8862    2.4523    0.4377 H   0  0  0  0  0  0  0  0  0  0  0  0
   -1.2748    2.2022   -1.2481 H   0  0  0  0  0  0  0  0  0  0  0  0
    0.0478   -1.1978   -1.2767 H   0  0  0  0  0  0  0  0  0  0  0  0
   -0.2113    0.5446    1.2393 H   0  0  0  0  0  0  0  0  0  0  0  0
   -2.5816   -1.6756    1.4458 H   0  0  0  0  0  0  0  0  0  0  0  0
  1  2  1  0
  1  6  1  0
  2 21  1  0
  3  4  1  0
  3 10  1  0
  3  5  1  0
  3  8  1  0
  4 11  1  0
  4  5  1  0
  4 12  1  0
  5 14  1  0
  5 13  1  0
  6  9  1  0
  6 15  1  0
  6  7  1  0
  7 18  1  0
  7 16  1  0
  7 17  1  0
  8  9  2  3
  8 19  1  0
  9 20  1  0
M  END
