
     RDKit          3D

 21 22  0  0  0  0  0  0  0  0999 V2000
   -0.1143   -0.6801   -0.7761 C   0  0  0  0  0  0  0  0  0  0  0  0
   -0.1360    0.8211   -0.6932 C   0  0  0  0  0  0  0  0  0  0  0  0
   -0.9023   -1.1959    0.3980 C   0  0  0  0  0  0  0  0  0  0  0  0
   -1.3011    1.1881    0.2179 C   0  0  0  0  0  0  0  0  0  0  0  0
   -1.9212   -0.1122    0.6606 C   0  0  0  0  0  0  0  0  0  0  0  0
    1.2456   -1.2579   -0.7421 C   0  0  0  0  0  0  0  0  0  0  0  0
    1.1233    1.3940   -0.1544 C   0  0  0  0  0  0  0  0  0  0  0  0
    2.1384   -0.7806    0.1283 C   0  0  0  0  0  0  0  0  0  0  0  0
    2.0621    0.6551    0.4346 C   0  0  0  0  0  0  0  0  0  0  0  0
   -0.6145   -1.0118   -1.7017 H   0  0  0  0  0  0  0  0  0  0  0  0
   -0.3287    1.2928   -1.6908 H   0  0  0  0  0  0  0  0  0  0  0  0
   -2.1812   -0.1406    1.7263 H   0  0  0  0  0  0  0  0  0  0  0  0
   -2.7896   -0.3154   -0.0032 H   0  0  0  0  0  0  0  0  0  0  0  0
   -1.4092   -2.1636    0.1556 H   0  0  0  0  0  0  0  0  0  0  0  0
   -0.2951   -1.3923    1.2932 H   0  0  0  0  0  0  0  0  0  0  0  0
   -2.0447    1.8249   -0.3211 H   0  0  0  0  0  0  0  0  0  0  0  0
   -0.9724    1.8115    1.0827 H   0  0  0  0  0  0  0  0  0  0  0  0
    1.6097   -1.9876   -1.4694 H   0  0  0  0  0  0  0  0  0  0  0  0
    1.4158    2.4065   -0.4216 H   0  0  0  0  0  0  0  0  0  0  0  0
    2.9001   -1.4056    0.5497 H   0  0  0  0  0  0  0  0  0  0  0  0
    2.5153    1.0495    1.3267 H   0  0  0  0  0  0  0  0  0  0  0  0
  1 10  1  0
  1  6  1  0
  1  2  1  0
  1  3  1  0
  2  4  1  0
  2 11  1  0
  2  7  1  0
  3 14  1  0
  3  5  1  0
  3 15  1  0
  4  5  1  0
  4 17  1  0
  4 16  1  0
  5 12  1  0
  5 13  1  0
  6  8  2  0
  6 18  1  0
  7  9  2  0
  7 19  1  0
  8 20  1  0
  8  9  1  0
  9 21  1  0
M  END
