
     RDKit          3D

 17 18  0  0  0  0  0  0  0  0999 V2000
    0.5150   -0.1016    0.2011 C   0  0  0  0  0  0  0  0  0  0  0  0
   -0.7413    0.6433    0.0552 C   0  0  0  0  0  0  0  0  0  0  0  0
    1.5560   -0.3002   -0.7749 C   0  0  0  0  0  0  0  0  0  0  0  0
    1.8197    0.4287    0.5700 C   0  0  0  0  0  0  0  0  0  0  0  0
   -1.6521    0.2160   -1.0731 C   0  0  0  0  0  0  0  0  0  0  0  0
   -0.1941   -1.1273    0.9623 C   0  0  0  0  0  0  0  0  0  0  0  0
   -1.0891   -0.1772    1.2622 C   0  0  0  0  0  0  0  0  0  0  0  0
   -0.6504    1.7225    0.2261 H   0  0  0  0  0  0  0  0  0  0  0  0
    1.5918    0.3827   -1.6529 H   0  0  0  0  0  0  0  0  0  0  0  0
    2.1377   -1.2196   -0.9229 H   0  0  0  0  0  0  0  0  0  0  0  0
    2.0022    1.5070    0.5363 H   0  0  0  0  0  0  0  0  0  0  0  0
    2.3907   -0.1728    1.3202 H   0  0  0  0  0  0  0  0  0  0  0  0
   -2.6253    0.7561   -0.9880 H   0  0  0  0  0  0  0  0  0  0  0  0
   -1.2291    0.4956   -2.0654 H   0  0  0  0  0  0  0  0  0  0  0  0
   -1.8739   -0.8563   -0.9895 H   0  0  0  0  0  0  0  0  0  0  0  0
    0.0566   -2.0336    1.4899 H   0  0  0  0  0  0  0  0  0  0  0  0
   -2.0144   -0.1634    1.8433 H   0  0  0  0  0  0  0  0  0  0  0  0
  1  2  1  0
  1  4  1  0
  1  6  1  0
  1  3  1  0
  2  7  1  0
  2  8  1  0
  2  5  1  0
  3  4  1  0
  3 10  1  0
  3  9  1  0
  4 11  1  0
  4 12  1  0
  5 15  1  0
  5 13  1  0
  5 14  1  0
  6  7  2  0
  6 16  1  0
  7 17  1  0
M  END
