
     RDKit          3D

 17 18  0  0  0  0  0  0  0  0999 V2000
    0.4143   -0.2669    0.1299 C   0  0  0  0  0  0  0  0  0  0  0  0
   -0.7393    0.5582    0.1336 C   0  0  0  0  0  0  0  0  0  0  0  0
    1.5964   -0.4231   -0.8036 C   0  0  0  0  0  0  0  0  0  0  0  0
    1.7277    0.4503    0.4379 C   0  0  0  0  0  0  0  0  0  0  0  0
   -1.6001    0.4086   -1.1211 C   0  0  0  0  0  0  0  0  0  0  0  0
   -0.0587   -1.1000    1.2396 C   0  0  0  0  0  0  0  0  0  0  0  0
   -1.2313   -0.3211    1.2776 C   0  0  0  0  0  0  0  0  0  0  0  0
   -0.5919    1.6150    0.4514 H   0  0  0  0  0  0  0  0  0  0  0  0
    1.4855    0.1311   -1.7593 H   0  0  0  0  0  0  0  0  0  0  0  0
    2.0874   -1.4166   -0.7349 H   0  0  0  0  0  0  0  0  0  0  0  0
    1.7926    1.5298    0.1805 H   0  0  0  0  0  0  0  0  0  0  0  0
    2.3821   -0.0105    1.2094 H   0  0  0  0  0  0  0  0  0  0  0  0
   -2.5888    0.8842   -0.9507 H   0  0  0  0  0  0  0  0  0  0  0  0
   -1.1056    0.9184   -1.9746 H   0  0  0  0  0  0  0  0  0  0  0  0
   -1.7582   -0.6609   -1.3829 H   0  0  0  0  0  0  0  0  0  0  0  0
    0.3196   -1.9579    1.7849 H   0  0  0  0  0  0  0  0  0  0  0  0
   -2.1317   -0.3387    1.8823 H   0  0  0  0  0  0  0  0  0  0  0  0
  1  2  1  0
  1  4  1  0
  1  6  1  0
  1  3  1  0
  2  7  1  0
  2  8  1  0
  2  5  1  0
  3  4  1  0
  3 10  1  0
  3  9  1  0
  4 11  1  0
  4 12  1  0
  5 15  1  0
  5 13  1  0
  5 14  1  0
  6  7  2  0
  6 16  1  0
  7 17  1  0
M  END
