
     RDKit          3D

 22 23  0  0  0  0  0  0  0  0999 V2000
   -0.1343   -0.7782   -0.6491 C   0  0  0  0  0  0  0  0  0  0  0  0
   -0.1890    0.6886   -0.9147 C   0  0  0  0  0  0  0  0  0  0  0  0
    0.7944   -1.1783    0.4564 C   0  0  0  0  0  0  0  0  0  0  0  0
    2.1533   -0.5223    0.2357 C   0  0  0  0  0  0  0  0  0  0  0  0
   -1.4930   -1.2894   -0.2920 C   0  0  0  0  0  0  0  0  0  0  0  0
    1.0383    1.4245   -0.5532 C   0  0  0  0  0  0  0  0  0  0  0  0
   -1.3186    1.3707   -0.2103 C   0  0  0  0  0  0  0  0  0  0  0  0
    1.9023    0.9517    0.3552 C   0  0  0  0  0  0  0  0  0  0  0  0
   -1.9235    0.7789    0.7928 C   0  0  0  0  0  0  0  0  0  0  0  0
   -2.2019   -0.6498    0.6289 C   0  0  0  0  0  0  0  0  0  0  0  0
    0.2038   -1.3055   -1.5730 H   0  0  0  0  0  0  0  0  0  0  0  0
   -0.3843    0.8360   -2.0056 H   0  0  0  0  0  0  0  0  0  0  0  0
    0.9710   -2.2652    0.4058 H   0  0  0  0  0  0  0  0  0  0  0  0
    0.4105   -0.9454    1.4673 H   0  0  0  0  0  0  0  0  0  0  0  0
    2.8833   -0.8875    0.9711 H   0  0  0  0  0  0  0  0  0  0  0  0
    2.4493   -0.7659   -0.8158 H   0  0  0  0  0  0  0  0  0  0  0  0
    1.0352    2.4914   -0.7941 H   0  0  0  0  0  0  0  0  0  0  0  0
   -1.4860    2.3996   -0.5144 H   0  0  0  0  0  0  0  0  0  0  0  0
   -1.8777   -2.2082   -0.7163 H   0  0  0  0  0  0  0  0  0  0  0  0
    2.5215    1.5986    0.9597 H   0  0  0  0  0  0  0  0  0  0  0  0
   -2.9447   -1.1317    1.2285 H   0  0  0  0  0  0  0  0  0  0  0  0
   -2.4099    1.3874    1.5372 H   0  0  0  0  0  0  0  0  0  0  0  0
  1  2  1  0
  1 11  1  0
  1  5  1  0
  1  3  1  0
  2 12  1  0
  2  6  1  0
  2  7  1  0
  3  4  1  0
  3 14  1  0
  3 13  1  0
  4 15  1  0
  4 16  1  0
  4  8  1  0
  5 10  2  0
  5 19  1  0
  6  8  2  0
  6 17  1  0
  7  9  2  0
  7 18  1  0
  8 20  1  0
  9 22  1  0
  9 10  1  0
 10 21  1  0
M  END
