
     RDKit          3D

 20 20  0  0  0  0  0  0  0  0999 V2000
   -0.5138    2.2177   -0.0505 C   0  0  0  0  0  0  0  0  0  0  0  0
   -0.4271   -0.1800    0.1277 C   0  0  0  0  0  0  0  0  0  0  0  0
    0.7634   -0.1487   -0.7353 C   0  0  0  0  0  0  0  0  0  0  0  0
   -0.9974    0.9439    0.5697 C   0  0  0  0  0  0  0  0  0  0  0  0
    0.9823    2.2094   -0.1033 C   0  0  0  0  0  0  0  0  0  0  0  0
    1.5567    1.0583   -0.4586 C   0  0  0  0  0  0  0  0  0  0  0  0
   -1.1855   -1.4298    0.2821 C   0  0  0  0  0  0  0  0  0  0  0  0
   -2.4562   -1.5201   -0.0768 C   0  0  0  0  0  0  0  0  0  0  0  0
    2.1814   -2.3363   -0.4553 C   0  0  0  0  0  0  0  0  0  0  0  0
    1.4314   -1.2863   -0.7343 C   0  0  0  0  0  0  0  0  0  0  0  0
   -0.9569    2.2664   -1.0776 H   0  0  0  0  0  0  0  0  0  0  0  0
   -0.8892    3.0386    0.6061 H   0  0  0  0  0  0  0  0  0  0  0  0
   -1.7024    0.9265    1.3943 H   0  0  0  0  0  0  0  0  0  0  0  0
    1.5053    2.9026    0.5587 H   0  0  0  0  0  0  0  0  0  0  0  0
    2.5872    1.1619   -0.8041 H   0  0  0  0  0  0  0  0  0  0  0  0
   -0.8636   -2.0512    1.1203 H   0  0  0  0  0  0  0  0  0  0  0  0
   -3.1884   -1.5169    0.7256 H   0  0  0  0  0  0  0  0  0  0  0  0
   -2.8257   -1.2674   -1.0571 H   0  0  0  0  0  0  0  0  0  0  0  0
    1.7906   -2.9326    0.3741 H   0  0  0  0  0  0  0  0  0  0  0  0
    3.2080   -2.0561   -0.2056 H   0  0  0  0  0  0  0  0  0  0  0  0
  1  4  1  0
  1 11  1  0
  1  5  1  0
  1 12  1  0
  2  7  1  0
  2  3  1  0
  2  4  2  0
  3 10  2  3
  3  6  1  0
  4 13  1  0
  5 14  1  0
  5  6  2  0
  6 15  1  0
  7 16  1  0
  7  8  2  3
  8 17  1  0
  8 18  1  0
  9 10  2  3
  9 19  1  0
  9 20  1  0
M  END
