
     RDKit          3D

 30 31  0  0  0  0  0  0  0  0999 V2000
   -0.2266   -0.1529   -0.5109 C   0  0  0  0  0  0  0  0  0  0  0  0
    0.6325    0.8992    0.0995 C   0  0  0  0  0  0  0  0  0  0  0  0
    0.6762   -1.0147   -1.3435 C   0  0  0  0  0  0  0  0  0  0  0  0
    1.4895    0.2404    1.1392 C   0  0  0  0  0  0  0  0  0  0  0  0
    2.3209   -0.8668    0.5952 C   0  0  0  0  0  0  0  0  0  0  0  0
    1.9474   -1.4311   -0.7138 C   0  0  0  0  0  0  0  0  0  0  0  0
   -0.9595   -1.0245    0.4562 C   0  0  0  0  0  0  0  0  0  0  0  0
   -0.0883    2.0957    0.6186 C   0  0  0  0  0  0  0  0  0  0  0  0
   -1.2294    0.4503   -1.4304 C   0  0  0  0  0  0  0  0  0  0  0  0
   -2.1073   -0.3086    1.0954 C   0  0  0  0  0  0  0  0  0  0  0  0
   -2.4829    0.6878   -1.0439 C   0  0  0  0  0  0  0  0  0  0  0  0
   -2.9943    0.2175    0.2504 C   0  0  0  0  0  0  0  0  0  0  0  0
    1.3248    1.2595   -0.7042 H   0  0  0  0  0  0  0  0  0  0  0  0
    2.1172    1.0579    1.5796 H   0  0  0  0  0  0  0  0  0  0  0  0
    0.8620   -0.1031    2.0022 H   0  0  0  0  0  0  0  0  0  0  0  0
    2.3780   -1.6498    1.3959 H   0  0  0  0  0  0  0  0  0  0  0  0
    3.3745   -0.4886    0.5319 H   0  0  0  0  0  0  0  0  0  0  0  0
    2.7609   -1.2795   -1.4708 H   0  0  0  0  0  0  0  0  0  0  0  0
    1.9035   -2.5469   -0.6011 H   0  0  0  0  0  0  0  0  0  0  0  0
    0.8520   -0.4341   -2.2861 H   0  0  0  0  0  0  0  0  0  0  0  0
    0.0494   -1.8805   -1.6807 H   0  0  0  0  0  0  0  0  0  0  0  0
   -0.3229   -1.5427    1.1869 H   0  0  0  0  0  0  0  0  0  0  0  0
   -1.4350   -1.8386   -0.1496 H   0  0  0  0  0  0  0  0  0  0  0  0
   -0.6776    1.9081    1.5411 H   0  0  0  0  0  0  0  0  0  0  0  0
    0.6939    2.8362    0.9246 H   0  0  0  0  0  0  0  0  0  0  0  0
   -0.6641    2.5767   -0.1862 H   0  0  0  0  0  0  0  0  0  0  0  0
   -0.9693    0.7414   -2.4490 H   0  0  0  0  0  0  0  0  0  0  0  0
   -2.4622   -0.7476    2.0282 H   0  0  0  0  0  0  0  0  0  0  0  0
   -3.0079    1.4844   -1.5747 H   0  0  0  0  0  0  0  0  0  0  0  0
   -3.7554    0.8546    0.6999 H   0  0  0  0  0  0  0  0  0  0  0  0
  1  3  1  0
  1  9  1  0
  1  7  1  0
  1  2  1  0
  2  4  1  0
  2 13  1  0
  2  8  1  0
  3 20  1  0
  3 21  1  0
  3  6  1  0
  4  5  1  0
  4 15  1  0
  4 14  1  0
  5 17  1  0
  5 16  1  0
  5  6  1  0
  6 18  1  0
  6 19  1  0
  7 22  1  0
  7 23  1  0
  7 10  1  0
  8 26  1  0
  8 24  1  0
  8 25  1  0
  9 27  1  0
  9 11  2  0
 10 28  1  0
 10 12  2  0
 11 29  1  0
 11 12  1  0
 12 30  1  0
M  END
