
     RDKit          3D

 20 20  0  0  0  0  0  0  0  0999 V2000
   -1.9517   -0.4404   -0.6759 C   0  0  0  0  0  0  0  0  0  0  0  0
   -2.4769    0.5328    0.3887 C   0  0  0  0  0  0  0  0  0  0  0  0
   -0.4715   -0.2351   -0.8901 C   0  0  0  0  0  0  0  0  0  0  0  0
    0.3607    0.0075    0.3189 C   0  0  0  0  0  0  0  0  0  0  0  0
   -1.6418    0.4878    1.6436 C   0  0  0  0  0  0  0  0  0  0  0  0
   -0.3193    0.2882    1.5988 C   0  0  0  0  0  0  0  0  0  0  0  0
    0.0446   -0.2745   -2.1259 C   0  0  0  0  0  0  0  0  0  0  0  0
    4.2480   -0.1990    0.2355 C   0  0  0  0  0  0  0  0  0  0  0  0
    1.6682   -0.0619    0.2913 C   0  0  0  0  0  0  0  0  0  0  0  0
    2.9479   -0.1298    0.2640 C   0  0  0  0  0  0  0  0  0  0  0  0
   -2.5258   -0.2968   -1.6176 H   0  0  0  0  0  0  0  0  0  0  0  0
   -2.4576    1.5678   -0.0159 H   0  0  0  0  0  0  0  0  0  0  0  0
   -2.1179   -1.4829   -0.3274 H   0  0  0  0  0  0  0  0  0  0  0  0
   -3.5294    0.2783    0.6366 H   0  0  0  0  0  0  0  0  0  0  0  0
   -2.1186    0.6722    2.5981 H   0  0  0  0  0  0  0  0  0  0  0  0
    0.2515    0.3213    2.5198 H   0  0  0  0  0  0  0  0  0  0  0  0
   -0.5871   -0.4585   -2.9859 H   0  0  0  0  0  0  0  0  0  0  0  0
    1.1012   -0.1217   -2.3035 H   0  0  0  0  0  0  0  0  0  0  0  0
    4.7623   -0.3185   -0.7083 H   0  0  0  0  0  0  0  0  0  0  0  0
    4.8131   -0.1368    1.1554 H   0  0  0  0  0  0  0  0  0  0  0  0
  1 13  1  0
  1  2  1  0
  1  3  1  0
  1 11  1  0
  2  5  1  0
  2 12  1  0
  2 14  1  0
  3  7  2  3
  3  4  1  0
  4  6  1  0
  4  9  2  3
  5  6  2  0
  5 15  1  0
  6 16  1  0
  7 17  1  0
  7 18  1  0
  8 19  1  0
  8 20  1  0
  8 10  2  3
  9 10  2  3
M  END
