
     RDKit          3D

 17 17  0  0  0  0  0  0  0  0999 V2000
    0.6394   -1.0542    0.4521 C   0  0  0  0  0  0  0  0  0  0  0  0
   -0.6360   -1.3015   -0.3686 C   0  0  0  0  0  0  0  0  0  0  0  0
    1.4860    0.1052   -0.0939 C   0  0  0  0  0  0  0  0  0  0  0  0
   -1.6682   -0.1755   -0.2398 C   0  0  0  0  0  0  0  0  0  0  0  0
    0.9424    1.4468    0.3222 C   0  0  0  0  0  0  0  0  0  0  0  0
   -0.2638    1.8977   -0.0514 C   0  0  0  0  0  0  0  0  0  0  0  0
   -1.1952    1.1065   -0.9224 C   0  0  0  0  0  2  0  0  0  0  0  0
    0.3837   -0.8806    1.5209 H   0  0  0  0  0  0  0  0  0  0  0  0
    1.2542   -1.9796    0.4093 H   0  0  0  0  0  0  0  0  0  0  0  0
   -1.1041   -2.2412   -0.0031 H   0  0  0  0  0  0  0  0  0  0  0  0
   -0.3773   -1.4595   -1.4389 H   0  0  0  0  0  0  0  0  0  0  0  0
    1.5616    0.0514   -1.2018 H   0  0  0  0  0  0  0  0  0  0  0  0
    2.5160    0.0094    0.3125 H   0  0  0  0  0  0  0  0  0  0  0  0
   -2.6006   -0.5002   -0.7479 H   0  0  0  0  0  0  0  0  0  0  0  0
   -1.9180    0.0109    0.8281 H   0  0  0  0  0  0  0  0  0  0  0  0
    1.5627    2.0822    0.9478 H   0  0  0  0  0  0  0  0  0  0  0  0
   -0.5829    2.8822    0.2748 H   0  0  0  0  0  0  0  0  0  0  0  0
  1  3  1  0
  1  2  1  0
  1  8  1  0
  1  9  1  0
  2 10  1  0
  2 11  1  0
  2  4  1  0
  3 13  1  0
  3  5  1  0
  3 12  1  0
  4  7  1  0
  4 14  1  0
  4 15  1  0
  5 16  1  0
  5  6  2  0
  6  7  1  0
  6 17  1  0
M  RAD  1   7   3
M  END
