
     RDKit          3D

 22 22  0  0  0  0  0  0  0  0999 V2000
   -0.3116   -1.6222   -0.3979 C   0  0  0  0  0  0  0  0  0  0  0  0
   -2.8355    1.1735   -0.2217 C   0  0  0  0  0  0  0  0  0  0  0  0
   -1.2989   -0.5456   -0.0560 C   0  0  0  0  0  0  0  0  0  0  0  0
   -1.9401    0.2130   -0.9328 C   0  0  0  0  0  0  0  0  0  0  0  0
   -2.5812    0.8138    1.2065 C   0  0  0  0  0  0  0  0  0  0  0  0
    1.0507   -1.2829    0.1308 C   0  0  0  0  0  0  0  0  0  0  0  0
   -1.7017   -0.1706    1.2882 C   0  0  0  0  0  0  0  0  0  0  0  0
    1.7606   -0.2693   -0.3717 C   0  0  0  0  0  0  0  0  0  0  0  0
    3.0953    0.0557    0.1551 C   0  0  0  0  0  0  0  0  0  0  0  0
    3.8025    1.0671   -0.3401 C   0  0  0  0  0  0  0  0  0  0  0  0
   -2.5329    2.2220   -0.4259 H   0  0  0  0  0  0  0  0  0  0  0  0
   -3.8981    0.9981   -0.4913 H   0  0  0  0  0  0  0  0  0  0  0  0
   -0.6551   -2.5746    0.0585 H   0  0  0  0  0  0  0  0  0  0  0  0
   -0.2550   -1.7742   -1.4983 H   0  0  0  0  0  0  0  0  0  0  0  0
   -1.8258    0.1469   -2.0071 H   0  0  0  0  0  0  0  0  0  0  0  0
   -3.0466    1.2872    2.0608 H   0  0  0  0  0  0  0  0  0  0  0  0
    1.4574   -1.8861    0.9345 H   0  0  0  0  0  0  0  0  0  0  0  0
    3.5165   -0.5338    0.9612 H   0  0  0  0  0  0  0  0  0  0  0  0
   -1.3465   -0.6140    2.2091 H   0  0  0  0  0  0  0  0  0  0  0  0
    1.3468    0.3257   -1.1788 H   0  0  0  0  0  0  0  0  0  0  0  0
    3.4168    1.6805   -1.1452 H   0  0  0  0  0  0  0  0  0  0  0  0
    4.7823    1.2898    0.0620 H   0  0  0  0  0  0  0  0  0  0  0  0
  1  3  1  0
  1 14  1  0
  1 13  1  0
  1  6  1  0
  2 11  1  0
  2  4  1  0
  2  5  1  0
  2 12  1  0
  3  7  1  0
  3  4  2  0
  4 15  1  0
  5 16  1  0
  5  7  2  0
  6  8  2  3
  6 17  1  0
  7 19  1  0
  8  9  1  0
  8 20  1  0
  9 18  1  0
  9 10  2  3
 10 21  1  0
 10 22  1  0
M  END
