
     RDKit          3D

 22 22  0  0  0  0  0  0  0  0999 V2000
   -0.3198   -1.7466   -0.0085 C   0  0  0  0  0  0  0  0  0  0  0  0
   -2.4404    1.2286   -0.5076 C   0  0  0  0  0  0  0  0  0  0  0  0
   -1.1282   -0.4911    0.0277 C   0  0  0  0  0  0  0  0  0  0  0  0
   -1.8427   -0.0493   -1.0080 C   0  0  0  0  0  0  0  0  0  0  0  0
   -2.6499    0.9034    0.9374 C   0  0  0  0  0  0  0  0  0  0  0  0
    1.1431   -1.4595   -0.0174 C   0  0  0  0  0  0  0  0  0  0  0  0
   -1.6041    0.1421    1.2632 C   0  0  0  0  0  0  0  0  0  0  0  0
    1.5864   -0.2147   -0.1753 C   0  0  0  0  0  0  0  0  0  0  0  0
    2.9500    0.1069    0.2520 C   0  0  0  0  0  0  0  0  0  0  0  0
    3.4105    1.3464    0.1027 C   0  0  0  0  0  0  0  0  0  0  0  0
   -1.6781    2.0412   -0.5799 H   0  0  0  0  0  0  0  0  0  0  0  0
   -3.3736    1.4825   -1.0260 H   0  0  0  0  0  0  0  0  0  0  0  0
   -0.5541   -2.4034    0.8611 H   0  0  0  0  0  0  0  0  0  0  0  0
   -0.5291   -2.3492   -0.9128 H   0  0  0  0  0  0  0  0  0  0  0  0
   -2.2883   -0.6319   -1.8148 H   0  0  0  0  0  0  0  0  0  0  0  0
   -3.5017    1.1822    1.5602 H   0  0  0  0  0  0  0  0  0  0  0  0
    1.7902   -2.2951   -0.2267 H   0  0  0  0  0  0  0  0  0  0  0  0
    3.6510   -0.7067    0.4489 H   0  0  0  0  0  0  0  0  0  0  0  0
   -1.2049    0.0608    2.2695 H   0  0  0  0  0  0  0  0  0  0  0  0
    1.1854    0.3275   -1.0254 H   0  0  0  0  0  0  0  0  0  0  0  0
    2.9135    2.0052   -0.6120 H   0  0  0  0  0  0  0  0  0  0  0  0
    4.4846    1.5206    0.1916 H   0  0  0  0  0  0  0  0  0  0  0  0
  1  3  1  0
  1 14  1  0
  1 13  1  0
  1  6  1  0
  2 11  1  0
  2  4  1  0
  2  5  1  0
  2 12  1  0
  3  7  1  0
  3  4  2  0
  4 15  1  0
  5 16  1  0
  5  7  2  0
  6  8  2  3
  6 17  1  0
  7 19  1  0
  8  9  1  0
  8 20  1  0
  9 18  1  0
  9 10  2  3
 10 21  1  0
 10 22  1  0
M  END
