
     RDKit          3D

 14 14  0  0  0  0  0  0  0  0999 V2000
   -2.0406    0.3254    0.4336 C   0  0  0  0  0  0  0  0  0  0  0  0
   -1.8848   -0.4671   -0.8534 C   0  0  0  0  0  0  0  0  0  0  0  0
   -0.6922    0.0839   -0.2192 C   0  0  0  0  0  0  0  0  0  0  0  0
    0.6044    0.0471    0.0925 C   0  0  0  0  0  0  0  0  0  0  0  0
    1.5704    0.0108   -1.0125 C   0  0  0  0  0  0  0  0  0  0  0  0
    2.7966    0.4425   -0.7139 C   0  0  0  0  0  0  0  0  0  0  0  0
   -2.2486   -0.2869    1.3479 H   0  0  0  0  0  0  0  0  0  0  0  0
   -2.4548    1.3408    0.3494 H   0  0  0  0  0  0  0  0  0  0  0  0
   -2.3578    0.0026   -1.7348 H   0  0  0  0  0  0  0  0  0  0  0  0
   -2.1261   -1.5548   -0.7749 H   0  0  0  0  0  0  0  0  0  0  0  0
    0.9607   -0.2794    1.0714 H   0  0  0  0  0  0  0  0  0  0  0  0
    1.5005   -0.8616   -1.6640 H   0  0  0  0  0  0  0  0  0  0  0  0
    2.8895    1.4651   -0.3476 H   0  0  0  0  0  0  0  0  0  0  0  0
    3.4828   -0.2684   -0.2994 H   0  0  0  0  0  0  0  0  0  0  0  0
  1  3  1  0
  1  2  1  0
  1  7  1  0
  1  8  1  0
  2  3  1  0
  2  9  1  0
  2 10  1  0
  3  4  2  3
  4 11  1  0
  4  5  1  0
  5  6  2  3
  5 12  1  0
  6 13  1  0
  6 14  1  0
M  END
