
     RDKit          3D

 14 14  0  0  0  0  0  0  0  0999 V2000
   -2.2731    0.2006    0.1000 C   0  0  0  0  0  0  0  0  0  0  0  0
   -1.8078   -0.5397   -1.0273 C   0  0  0  0  0  0  0  0  0  0  0  0
   -0.7657    0.1042   -0.1165 C   0  0  0  0  0  0  0  0  0  0  0  0
    0.4860    0.3739    0.2257 C   0  0  0  0  0  0  0  0  0  0  0  0
    1.6027   -0.1317   -0.5828 C   0  0  0  0  0  0  0  0  0  0  0  0
    2.8641    0.1296   -0.2535 C   0  0  0  0  0  0  0  0  0  0  0  0
   -2.6077   -0.3930    0.9764 H   0  0  0  0  0  0  0  0  0  0  0  0
   -2.6598    1.2208   -0.1048 H   0  0  0  0  0  0  0  0  0  0  0  0
   -1.8701   -0.0319   -2.0125 H   0  0  0  0  0  0  0  0  0  0  0  0
   -1.8180   -1.6456   -0.9313 H   0  0  0  0  0  0  0  0  0  0  0  0
    0.6717    0.9719    1.1092 H   0  0  0  0  0  0  0  0  0  0  0  0
    1.4012   -0.7291   -1.4646 H   0  0  0  0  0  0  0  0  0  0  0  0
    3.1043    0.7229    0.6203 H   0  0  0  0  0  0  0  0  0  0  0  0
    3.6724   -0.2527   -0.8631 H   0  0  0  0  0  0  0  0  0  0  0  0
  1  3  1  0
  1  2  1  0
  1  7  1  0
  1  8  1  0
  2  3  1  0
  2  9  1  0
  2 10  1  0
  3  4  2  3
  4 11  1  0
  4  5  1  0
  5  6  2  3
  5 12  1  0
  6 13  1  0
  6 14  1  0
M  END
