
     RDKit          3D

 17 17  0  0  0  0  0  0  0  0999 V2000
    0.5263   -0.3087    0.3425 C   0  0  0  0  0  0  0  0  0  0  0  0
   -0.5954   -0.1032   -0.5937 C   0  0  0  0  0  0  0  0  0  0  0  0
   -0.0176   -1.5116   -0.3824 C   0  0  0  0  0  0  0  0  0  0  0  0
    1.8752    0.1513   -0.1219 C   0  0  0  0  0  0  0  0  0  0  0  0
   -1.9938    0.0461   -0.1366 C   0  0  0  0  0  0  0  0  0  0  0  0
    2.5223    1.1605    0.4606 C   0  0  0  0  0  0  0  0  0  0  0  0
   -2.3621    0.8418    0.8521 C   0  0  0  0  0  0  0  0  0  0  0  0
    0.4152   -0.2795    1.4349 H   0  0  0  0  0  0  0  0  0  0  0  0
   -0.3678    0.4051   -1.5558 H   0  0  0  0  0  0  0  0  0  0  0  0
    0.5616   -1.9649   -1.2010 H   0  0  0  0  0  0  0  0  0  0  0  0
   -0.6345   -2.2375    0.1778 H   0  0  0  0  0  0  0  0  0  0  0  0
    2.4203   -0.4140   -0.8651 H   0  0  0  0  0  0  0  0  0  0  0  0
   -2.7628   -0.6224   -0.5354 H   0  0  0  0  0  0  0  0  0  0  0  0
    3.0456    1.8909   -0.1648 H   0  0  0  0  0  0  0  0  0  0  0  0
   -3.1005    1.6105    0.6036 H   0  0  0  0  0  0  0  0  0  0  0  0
   -2.5341    0.3617    1.8205 H   0  0  0  0  0  0  0  0  0  0  0  0
    3.0021    0.9739    1.4266 H   0  0  0  0  0  0  0  0  0  0  0  0
  1  2  1  0
  1  4  1  0
  1  8  1  0
  1  3  1  0
  2  9  1  0
  2  5  1  0
  2  3  1  0
  3 10  1  0
  3 11  1  0
  4 12  1  0
  4  6  2  3
  5 13  1  0
  5  7  2  3
  6 14  1  0
  6 17  1  0
  7 15  1  0
  7 16  1  0
M  END
