
     RDKit          3D

 17 18  0  0  0  0  0  0  0  0999 V2000
    0.7735    0.0161   -0.5094 C   0  0  0  0  0  0  0  0  0  0  0  0
   -0.3462   -0.0435    0.5106 C   0  0  0  0  0  0  0  0  0  0  0  0
    2.0129    0.7306    0.0080 C   0  0  0  0  0  0  0  0  0  0  0  0
    1.9794   -0.7742   -0.2175 C   0  0  0  0  0  0  0  0  0  0  0  0
   -1.5715    0.7271    0.0692 C   0  0  0  0  0  0  0  0  0  0  0  0
   -2.3091   -0.5817    0.0030 C   0  0  0  0  0  0  0  0  0  0  0  0
   -1.0608   -1.3760    0.3682 C   0  0  0  0  0  2  0  0  0  0  0  0
    0.4578    0.2447   -1.5424 H   0  0  0  0  0  0  0  0  0  0  0  0
   -0.0246    0.1515    1.5598 H   0  0  0  0  0  0  0  0  0  0  0  0
    2.5243    1.3572   -0.7411 H   0  0  0  0  0  0  0  0  0  0  0  0
    2.0872    1.0031    1.0668 H   0  0  0  0  0  0  0  0  0  0  0  0
    1.9469   -1.4464    0.6653 H   0  0  0  0  0  0  0  0  0  0  0  0
    2.6947   -1.1090   -0.9846 H   0  0  0  0  0  0  0  0  0  0  0  0
   -1.9952    1.3880    0.8499 H   0  0  0  0  0  0  0  0  0  0  0  0
   -1.4356    1.2148   -0.9141 H   0  0  0  0  0  0  0  0  0  0  0  0
   -2.6740   -0.7852   -1.0131 H   0  0  0  0  0  0  0  0  0  0  0  0
   -3.0597   -0.7171    0.8214 H   0  0  0  0  0  0  0  0  0  0  0  0
  1  2  1  0
  1  8  1  0
  1  3  1  0
  1  4  1  0
  2  5  1  0
  2  9  1  0
  2  7  1  0
  3 11  1  0
  3  4  1  0
  3 10  1  0
  4 12  1  0
  4 13  1  0
  5  6  1  0
  5 14  1  0
  5 15  1  0
  6  7  1  0
  6 16  1  0
  6 17  1  0
M  RAD  1   7   3
M  END
