
     RDKit          3D

 19 20  0  0  0  0  0  0  0  0999 V2000
    0.2308   -1.1406    0.0793 C   0  0  0  0  0  0  0  0  0  0  0  0
   -0.1977    0.9660    0.6230 C   0  0  0  0  0  0  0  0  0  0  0  0
    0.0635   -0.3345    1.3462 C   0  0  0  0  0  0  0  0  0  0  0  0
    1.3526   -0.3693   -0.6393 C   0  0  0  0  0  0  0  0  0  0  0  0
    1.0554    1.0918   -0.2622 C   0  0  0  0  0  0  0  0  0  0  0  0
   -1.0983   -0.8658   -0.6471 C   0  0  0  0  0  0  0  0  0  0  0  0
   -1.3955    0.5953   -0.2700 C   0  0  0  0  0  0  0  0  0  0  0  0
    0.4486   -2.2182    0.2387 H   0  0  0  0  0  0  0  0  0  0  0  0
   -0.3768    1.8394    1.2858 H   0  0  0  0  0  0  0  0  0  0  0  0
    1.8979    1.5232    0.3221 H   0  0  0  0  0  0  0  0  0  0  0  0
    0.8725    1.7214   -1.1604 H   0  0  0  0  0  0  0  0  0  0  0  0
    1.3295   -0.5249   -1.7401 H   0  0  0  0  0  0  0  0  0  0  0  0
    2.3460   -0.6794   -0.2464 H   0  0  0  0  0  0  0  0  0  0  0  0
   -1.0097   -0.9988   -1.7476 H   0  0  0  0  0  0  0  0  0  0  0  0
   -1.8950   -1.5386   -0.2599 H   0  0  0  0  0  0  0  0  0  0  0  0
   -1.4666    1.2475   -1.1678 H   0  0  0  0  0  0  0  0  0  0  0  0
    0.9862   -0.3082    1.9714 H   0  0  0  0  0  0  0  0  0  0  0  0
   -0.8005   -0.6701    1.9657 H   0  0  0  0  0  0  0  0  0  0  0  0
   -2.3430    0.6640    0.3086 H   0  0  0  0  0  0  0  0  0  0  0  0
  1  6  1  0
  1  8  1  0
  1  4  1  0
  1  3  1  0
  2  7  1  0
  2  5  1  0
  2  9  1  0
  2  3  1  0
  3 18  1  0
  3 17  1  0
  4 13  1  0
  4 12  1  0
  4  5  1  0
  5 11  1  0
  5 10  1  0
  6  7  1  0
  6 15  1  0
  6 14  1  0
  7 19  1  0
  7 16  1  0
M  END
