
     RDKit          3D

 20 22  0  0  0  0  0  0  0  0999 V2000
   -1.5413   -0.8450    0.3938 C   0  0  0  0  0  0  0  0  0  0  0  0
   -2.2083    0.5370    0.2590 C   0  0  0  0  0  0  0  0  0  0  0  0
   -2.4424   -0.5351   -0.7934 C   0  0  0  0  0  0  0  0  0  0  0  0
    2.3557   -0.8670    0.0893 C   0  0  0  0  0  0  0  0  0  0  0  0
   -0.0953   -0.5225    0.2417 C   0  0  0  0  0  0  0  0  0  0  0  0
    0.0884    0.8840    0.0390 C   0  0  0  0  0  0  0  0  0  0  0  0
   -1.0759    1.5011    0.0191 C   0  0  0  0  0  0  0  0  0  0  0  0
    0.9337   -1.3683    0.2699 C   0  0  0  0  0  0  0  0  0  0  0  0
    2.4799    0.6365   -0.1276 C   0  0  0  0  0  0  0  0  0  0  0  0
    1.4200    1.4562   -0.1526 C   0  0  0  0  0  0  0  0  0  0  0  0
   -2.9567    0.7173    1.0599 H   0  0  0  0  0  0  0  0  0  0  0  0
   -1.9227   -1.3845    1.2870 H   0  0  0  0  0  0  0  0  0  0  0  0
   -1.9165   -0.3798   -1.7607 H   0  0  0  0  0  0  0  0  0  0  0  0
   -3.4411   -1.0155   -0.7353 H   0  0  0  0  0  0  0  0  0  0  0  0
    2.9427   -1.1423    0.9903 H   0  0  0  0  0  0  0  0  0  0  0  0
    2.8020   -1.3857   -0.7847 H   0  0  0  0  0  0  0  0  0  0  0  0
   -1.1982    2.5649   -0.1365 H   0  0  0  0  0  0  0  0  0  0  0  0
    0.7589   -2.4258    0.4225 H   0  0  0  0  0  0  0  0  0  0  0  0
    3.4684    1.0550   -0.2683 H   0  0  0  0  0  0  0  0  0  0  0  0
    1.5487    2.5194   -0.3124 H   0  0  0  0  0  0  0  0  0  0  0  0
  1  2  1  0
  1 12  1  0
  1  5  1  0
  1  3  1  0
  2 11  1  0
  2  7  1  0
  2  3  1  0
  3 14  1  0
  3 13  1  0
  4  8  1  0
  4 15  1  0
  4 16  1  0
  4  9  1  0
  5  8  2  0
  5  6  1  0
  6  7  2  0
  6 10  1  0
  7 17  1  0
  8 18  1  0
  9 19  1  0
  9 10  2  0
 10 20  1  0
M  END
