
     RDKit          3D

 22 23  0  0  0  0  0  0  0  0999 V2000
   -0.1598   -0.9876   -0.4150 C   0  0  0  0  0  0  0  0  0  0  0  0
    0.9147   -0.1528   -1.0766 C   0  0  0  0  0  0  0  0  0  0  0  0
    1.2789   -0.4158    1.3135 C   0  0  0  0  0  0  0  0  0  0  0  0
   -2.2770    0.7642    0.4605 C   0  0  0  0  0  0  0  0  0  0  0  0
   -0.1781   -0.3519    0.9442 C   0  0  0  0  0  0  0  0  0  0  0  0
    1.8709    0.1052    0.0365 C   0  0  0  0  0  0  0  0  0  0  0  0
   -1.4552   -0.9375   -1.0991 C   0  0  0  0  0  0  0  0  0  0  0  0
   -0.9180    0.7619    1.0395 C   0  0  0  0  0  0  0  0  0  0  0  0
   -2.4071   -0.0617   -0.7593 C   0  0  0  0  0  0  0  0  0  0  0  0
    2.9785    0.8506    0.0439 C   0  0  0  0  0  0  0  0  0  0  0  0
    0.2215   -2.0252   -0.2462 H   0  0  0  0  0  0  0  0  0  0  0  0
    1.3551   -0.7029   -1.9167 H   0  0  0  0  0  0  0  0  0  0  0  0
    0.4242    0.7587   -1.4486 H   0  0  0  0  0  0  0  0  0  0  0  0
    1.5197    0.2123    2.1801 H   0  0  0  0  0  0  0  0  0  0  0  0
    1.5443   -1.4793    1.4306 H   0  0  0  0  0  0  0  0  0  0  0  0
   -2.9402    0.2946    1.2310 H   0  0  0  0  0  0  0  0  0  0  0  0
   -2.6272    1.7905    0.1859 H   0  0  0  0  0  0  0  0  0  0  0  0
   -1.7903   -1.8260   -1.6444 H   0  0  0  0  0  0  0  0  0  0  0  0
   -0.6924    1.5281    1.7683 H   0  0  0  0  0  0  0  0  0  0  0  0
   -3.4328   -0.2476   -1.0948 H   0  0  0  0  0  0  0  0  0  0  0  0
    3.8926    0.3083    0.3070 H   0  0  0  0  0  0  0  0  0  0  0  0
    2.8778    1.8141    0.5544 H   0  0  0  0  0  0  0  0  0  0  0  0
  1 11  1  0
  1  5  1  0
  1  2  1  0
  1  7  1  0
  2  6  1  0
  2 12  1  0
  2 13  1  0
  3 14  1  0
  3  5  1  0
  3  6  1  0
  3 15  1  0
  4 17  1  0
  4  8  1  0
  4  9  1  0
  4 16  1  0
  5  8  2  0
  6 10  2  3
  7  9  2  0
  7 18  1  0
  8 19  1  0
  9 20  1  0
 10 21  1  0
 10 22  1  0
M  END
