
     RDKit          3D

 22 23  0  0  0  0  0  0  0  0999 V2000
   -0.2888   -0.8553   -0.3891 C   0  0  0  0  0  0  0  0  0  0  0  0
    1.0523   -0.7551   -1.1251 C   0  0  0  0  0  0  0  0  0  0  0  0
    1.2807    0.4131    1.0795 C   0  0  0  0  0  0  0  0  0  0  0  0
   -2.5792    0.3759    0.8610 C   0  0  0  0  0  0  0  0  0  0  0  0
   -0.1325    0.0407    0.8057 C   0  0  0  0  0  0  0  0  0  0  0  0
    1.9713   -0.0932   -0.1439 C   0  0  0  0  0  0  0  0  0  0  0  0
   -1.4807   -0.4407   -1.2215 C   0  0  0  0  0  0  0  0  0  0  0  0
   -1.1895    0.6137    1.4039 C   0  0  0  0  0  0  0  0  0  0  0  0
   -2.5540    0.1167   -0.6317 C   0  0  0  0  0  0  0  0  0  0  0  0
    3.2795    0.0549   -0.3728 C   0  0  0  0  0  0  0  0  0  0  0  0
   -0.4464   -1.8967   -0.0320 H   0  0  0  0  0  0  0  0  0  0  0  0
    1.4262   -1.7681   -1.3901 H   0  0  0  0  0  0  0  0  0  0  0  0
    0.9801   -0.1288   -2.0414 H   0  0  0  0  0  0  0  0  0  0  0  0
    1.3943    1.5164    1.1550 H   0  0  0  0  0  0  0  0  0  0  0  0
    1.6534   -0.0956    1.9937 H   0  0  0  0  0  0  0  0  0  0  0  0
   -3.0292   -0.4988    1.3757 H   0  0  0  0  0  0  0  0  0  0  0  0
   -3.2075    1.2681    1.0656 H   0  0  0  0  0  0  0  0  0  0  0  0
   -1.5002   -0.6506   -2.2869 H   0  0  0  0  0  0  0  0  0  0  0  0
   -1.0444    1.3154    2.2200 H   0  0  0  0  0  0  0  0  0  0  0  0
   -3.4256    0.3650   -1.2294 H   0  0  0  0  0  0  0  0  0  0  0  0
    3.9200    0.5516    0.3492 H   0  0  0  0  0  0  0  0  0  0  0  0
    3.9200    0.5516    0.3492 H   0  0  0  0  0  0  0  0  0  0  0  0
  1 11  1  0
  1  5  1  0
  1  2  1  0
  1  7  1  0
  2  6  1  0
  2 12  1  0
  2 13  1  0
  3 14  1  0
  3  5  1  0
  3  6  1  0
  3 15  1  0
  4 17  1  0
  4  8  1  0
  4  9  1  0
  4 16  1  0
  5  8  2  0
  6 10  2  3
  7  9  2  0
  7 18  1  0
  8 19  1  0
  9 20  1  0
 10 21  1  0
 10 22  1  0
M  END
