
     RDKit          3D

 17 17  0  0  0  0  0  0  0  0999 V2000
    0.7487    0.1279    0.4224 C   0  0  0  0  0  0  0  0  0  0  0  0
   -0.1732   -1.0183   -0.1736 C   0  0  0  0  0  0  0  0  0  0  0  0
   -1.7219   -0.7216   -0.0703 C   0  0  0  0  0  0  0  0  0  0  0  0
    2.1875   -0.0236   -0.0731 C   0  0  0  0  0  0  0  0  0  0  0  0
    0.2269    1.5199    0.0961 C   0  0  0  0  0  0  0  0  0  0  0  0
   -2.0614    0.7299   -0.3525 C   0  0  0  0  0  0  0  0  0  0  0  0
   -1.0267    1.4724   -0.1824 C   0  0  0  0  0  0  0  0  0  0  0  0
    0.7532    0.0231    1.5299 H   0  0  0  0  0  0  0  0  0  0  0  0
    0.0519   -1.9806    0.3346 H   0  0  0  0  0  0  0  0  0  0  0  0
    0.0692   -1.1483   -1.2516 H   0  0  0  0  0  0  0  0  0  0  0  0
   -2.2688   -1.3702   -0.7869 H   0  0  0  0  0  0  0  0  0  0  0  0
   -2.0712   -0.9711    0.9547 H   0  0  0  0  0  0  0  0  0  0  0  0
    2.8398    0.7367    0.4075 H   0  0  0  0  0  0  0  0  0  0  0  0
    2.5754   -1.0312    0.1881 H   0  0  0  0  0  0  0  0  0  0  0  0
    2.2364    0.1065   -1.1757 H   0  0  0  0  0  0  0  0  0  0  0  0
    0.7030    2.4266    0.4456 H   0  0  0  0  0  0  0  0  0  0  0  0
   -3.0688    1.1218   -0.3128 H   0  0  0  0  0  0  0  0  0  0  0  0
  1  5  1  0
  1  8  1  0
  1  2  1  0
  1  4  1  0
  2  3  1  0
  2 10  1  0
  2  9  1  0
  3 11  1  0
  3  6  1  0
  3 12  1  0
  4 14  1  0
  4 13  1  0
  4 15  1  0
  5  7  2  0
  5 16  1  0
  6  7  2  0
  6 17  1  0
M  END
