
     RDKit          3D

 20 22  0  0  0  0  0  0  0  0999 V2000
    1.9889    0.5981   -0.2838 C   0  0  0  0  0  0  0  0  0  0  0  0
    1.2932   -0.6408   -0.8616 C   0  0  0  0  0  0  0  0  0  0  0  0
    2.3138   -0.7847    0.2608 C   0  0  0  0  0  0  0  0  0  0  0  0
    0.9383    1.4247    0.4829 C   0  0  0  0  0  0  0  0  0  0  0  0
   -0.1235   -0.4718   -0.4502 C   0  0  0  0  0  0  0  0  0  0  0  0
   -0.3240    0.6732    0.2834 C   0  0  0  0  0  0  0  0  0  0  0  0
   -1.1809   -1.3375   -0.7372 C   0  0  0  0  0  0  0  0  0  0  0  0
   -1.5898    1.0094    0.7687 C   0  0  0  0  0  0  0  0  0  0  0  0
   -2.4626   -1.0178   -0.2624 C   0  0  0  0  0  0  0  0  0  0  0  0
   -2.6668    0.1539    0.4892 C   0  0  0  0  0  0  0  0  0  0  0  0
    2.7211    1.0767   -0.9688 H   0  0  0  0  0  0  0  0  0  0  0  0
    1.5739   -0.7948   -1.9251 H   0  0  0  0  0  0  0  0  0  0  0  0
    1.8880   -1.0224    1.2600 H   0  0  0  0  0  0  0  0  0  0  0  0
    3.2912   -1.1888   -0.0756 H   0  0  0  0  0  0  0  0  0  0  0  0
    0.8525    2.4399    0.0414 H   0  0  0  0  0  0  0  0  0  0  0  0
    1.1942    1.4906    1.5619 H   0  0  0  0  0  0  0  0  0  0  0  0
   -1.0170   -2.2381   -1.3146 H   0  0  0  0  0  0  0  0  0  0  0  0
   -3.6564    0.3953    0.8548 H   0  0  0  0  0  0  0  0  0  0  0  0
   -1.7382    1.9100    1.3504 H   0  0  0  0  0  0  0  0  0  0  0  0
   -3.2958   -1.6751   -0.4742 H   0  0  0  0  0  0  0  0  0  0  0  0
  1  3  1  0
  1 11  1  0
  1  4  1  0
  1  2  1  0
  2  5  1  0
  2 12  1  0
  2  3  1  0
  3 13  1  0
  3 14  1  0
  4  6  1  0
  4 16  1  0
  4 15  1  0
  5  6  2  0
  5  7  1  0
  6  8  1  0
  7 17  1  0
  7  9  2  0
  8 10  2  0
  8 19  1  0
  9 20  1  0
  9 10  1  0
 10 18  1  0
M  END
