
     RDKit          3D

 21 21  0  0  0  0  0  0  0  0999 V2000
   -0.2256   -0.2976    0.5976 C   0  0  0  0  0  0  0  0  0  0  0  0
    1.0876    0.1658    1.2557 C   0  0  0  0  0  0  0  0  0  0  0  0
   -0.2208   -0.0350   -0.9295 C   0  0  0  0  0  0  0  0  0  0  0  0
   -1.4109    0.3776    1.2552 C   0  0  0  0  0  0  0  0  0  0  0  0
   -1.5960   -0.1899   -1.5238 C   0  0  0  0  0  0  0  0  0  0  0  0
    2.2655   -0.6233    0.7464 C   0  0  0  0  0  0  0  0  0  0  0  0
   -2.6851    0.1156   -0.8125 C   0  0  0  0  0  0  0  0  0  0  0  0
   -2.5686    0.5161    0.6008 C   0  0  0  0  0  0  0  0  0  0  0  0
    3.2838   -0.0410    0.1071 C   0  0  0  0  0  0  0  0  0  0  0  0
   -0.3400   -1.3924    0.7641 H   0  0  0  0  0  0  0  0  0  0  0  0
    1.0284    0.0059    2.3541 H   0  0  0  0  0  0  0  0  0  0  0  0
    1.2285    1.2567    1.0847 H   0  0  0  0  0  0  0  0  0  0  0  0
    0.1309    0.9987   -1.1385 H   0  0  0  0  0  0  0  0  0  0  0  0
    0.4712   -0.7444   -1.4320 H   0  0  0  0  0  0  0  0  0  0  0  0
    2.2854   -1.6977    0.9045 H   0  0  0  0  0  0  0  0  0  0  0  0
   -1.6975   -0.4795   -2.5622 H   0  0  0  0  0  0  0  0  0  0  0  0
   -1.3561    0.6770    2.2951 H   0  0  0  0  0  0  0  0  0  0  0  0
   -3.4315    0.9241    1.1114 H   0  0  0  0  0  0  0  0  0  0  0  0
   -3.6621    0.0748   -1.2766 H   0  0  0  0  0  0  0  0  0  0  0  0
    3.2973    1.0297   -0.0720 H   0  0  0  0  0  0  0  0  0  0  0  0
    4.1156   -0.6414   -0.2466 H   0  0  0  0  0  0  0  0  0  0  0  0
  1 10  1  0
  1  3  1  0
  1  2  1  0
  1  4  1  0
  2 12  1  0
  2  6  1  0
  2 11  1  0
  3 14  1  0
  3 13  1  0
  3  5  1  0
  4  8  2  0
  4 17  1  0
  5  7  2  0
  5 16  1  0
  6  9  2  3
  6 15  1  0
  7 19  1  0
  7  8  1  0
  8 18  1  0
  9 20  1  0
  9 21  1  0
M  END
