
     RDKit          3D

 20 21  0  0  0  0  0  0  0  0999 V2000
   -0.5487   -0.9354    0.8266 C   0  0  0  0  0  0  0  0  0  0  0  0
    2.3706    0.9099   -0.7018 C   0  0  0  0  0  0  0  0  0  0  0  0
    0.2244    0.2897    0.4571 C   0  0  0  0  0  0  0  0  0  0  0  0
    1.3982   -0.0371   -0.0709 C   0  0  0  0  0  0  0  0  0  0  0  0
    0.3436   -2.0116    0.2980 C   0  0  0  0  0  0  0  0  0  0  0  0
   -1.9196   -0.9001    0.1980 C   0  0  0  0  0  0  0  0  0  0  0  0
    1.4752   -1.4892   -0.1557 C   0  0  0  0  0  0  0  0  0  0  0  0
   -0.4612    1.5785    0.2878 C   0  0  0  0  0  0  0  0  0  0  0  0
   -2.5116    0.2741   -0.0844 C   0  0  0  0  0  0  0  0  0  0  0  0
   -1.7781    1.5609    0.0451 C   0  0  0  0  0  0  0  0  0  0  0  0
   -0.6407   -1.0232    1.9302 H   0  0  0  0  0  0  0  0  0  0  0  0
    2.7379    1.6293    0.0596 H   0  0  0  0  0  0  0  0  0  0  0  0
    1.8767    1.4661   -1.5261 H   0  0  0  0  0  0  0  0  0  0  0  0
    3.2373    0.3530   -1.1157 H   0  0  0  0  0  0  0  0  0  0  0  0
   -2.4822   -1.8197    0.0950 H   0  0  0  0  0  0  0  0  0  0  0  0
    0.1329   -3.0725    0.3325 H   0  0  0  0  0  0  0  0  0  0  0  0
   -3.5337    0.2849   -0.4403 H   0  0  0  0  0  0  0  0  0  0  0  0
   -2.3030    2.4907   -0.1318 H   0  0  0  0  0  0  0  0  0  0  0  0
    0.0901    2.5102    0.2763 H   0  0  0  0  0  0  0  0  0  0  0  0
    2.2920   -2.0587   -0.5793 H   0  0  0  0  0  0  0  0  0  0  0  0
  1  5  1  0
  1  6  1  0
  1  3  1  0
  1 11  1  0
  2  4  1  0
  2 14  1  0
  2 13  1  0
  2 12  1  0
  3  4  2  0
  3  8  1  0
  4  7  1  0
  5 16  1  0
  5  7  2  0
  6 15  1  0
  6  9  2  0
  7 20  1  0
  8 19  1  0
  8 10  2  0
  9 17  1  0
  9 10  1  0
 10 18  1  0
M  END
