
     RDKit          3D

 20 21  0  0  0  0  0  0  0  0999 V2000
   -0.5050   -0.8818    0.6602 C   0  0  0  0  0  0  0  0  0  0  0  0
    2.5589    0.9459   -0.2123 C   0  0  0  0  0  0  0  0  0  0  0  0
    0.1728    0.3581    0.1709 C   0  0  0  0  0  0  0  0  0  0  0  0
    1.4389   -0.0245   -0.0065 C   0  0  0  0  0  0  0  0  0  0  0  0
    0.2395   -1.9115   -0.1222 C   0  0  0  0  0  0  0  0  0  0  0  0
   -1.9512   -0.8765    0.3746 C   0  0  0  0  0  0  0  0  0  0  0  0
    1.5050   -1.4905   -0.0816 C   0  0  0  0  0  0  0  0  0  0  0  0
   -0.6219    1.4892   -0.3236 C   0  0  0  0  0  0  0  0  0  0  0  0
   -2.6619    0.2403    0.2140 C   0  0  0  0  0  0  0  0  0  0  0  0
   -1.9462    1.3702   -0.3861 C   0  0  0  0  0  0  0  0  0  0  0  0
   -0.3078   -1.0686    1.7251 H   0  0  0  0  0  0  0  0  0  0  0  0
    2.9004    1.3363    0.7798 H   0  0  0  0  0  0  0  0  0  0  0  0
    2.2213    1.8495   -0.7747 H   0  0  0  0  0  0  0  0  0  0  0  0
    3.4031    0.4245   -0.6906 H   0  0  0  0  0  0  0  0  0  0  0  0
   -2.5066   -1.7618    0.5997 H   0  0  0  0  0  0  0  0  0  0  0  0
   -0.0835   -2.8476   -0.5292 H   0  0  0  0  0  0  0  0  0  0  0  0
   -3.5807    0.4357    0.7689 H   0  0  0  0  0  0  0  0  0  0  0  0
   -2.4913    2.2567   -0.6832 H   0  0  0  0  0  0  0  0  0  0  0  0
   -0.1251    2.2076   -0.9783 H   0  0  0  0  0  0  0  0  0  0  0  0
    2.3411   -2.0512   -0.5047 H   0  0  0  0  0  0  0  0  0  0  0  0
  1  5  1  0
  1  6  1  0
  1  3  1  0
  1 11  1  0
  2  4  1  0
  2 14  1  0
  2 13  1  0
  2 12  1  0
  3  4  2  0
  3  8  1  0
  4  7  1  0
  5 16  1  0
  5  7  2  0
  6 15  1  0
  6  9  2  0
  7 20  1  0
  8 19  1  0
  8 10  2  0
  9 17  1  0
  9 10  1  0
 10 18  1  0
M  END
