
     RDKit          3D

 17 17  0  0  0  0  0  0  0  0999 V2000
   -0.3586    0.0730   -0.3483 C   0  0  0  0  0  0  0  0  0  0  0  0
    0.0760    1.4914   -0.0056 C   0  0  0  0  0  0  0  0  0  0  0  0
    2.1742   -0.8522   -0.0427 C   0  0  0  0  0  0  0  0  0  0  0  0
    0.8759   -0.2703    0.3976 C   0  0  0  0  0  0  0  0  0  0  0  0
    0.6437    0.7992    1.1689 C   0  0  0  0  0  0  0  0  0  0  0  0
   -1.6187   -0.3243    0.3171 C   0  0  0  0  0  0  0  0  0  0  0  0
   -2.5877   -0.8149   -0.4656 C   0  0  0  0  0  0  0  0  0  0  0  0
   -0.3333   -0.0697   -1.4367 H   0  0  0  0  0  0  0  0  0  0  0  0
    0.8275    1.9125   -0.6882 H   0  0  0  0  0  0  0  0  0  0  0  0
   -0.8017    2.1300    0.1673 H   0  0  0  0  0  0  0  0  0  0  0  0
    2.9278   -0.0822   -0.2950 H   0  0  0  0  0  0  0  0  0  0  0  0
    2.6362   -1.5081    0.7095 H   0  0  0  0  0  0  0  0  0  0  0  0
    2.0447   -1.4595   -0.9729 H   0  0  0  0  0  0  0  0  0  0  0  0
   -1.8444    0.0201    1.3114 H   0  0  0  0  0  0  0  0  0  0  0  0
    0.7287    0.9124    2.2344 H   0  0  0  0  0  0  0  0  0  0  0  0
   -2.4532   -1.8420   -0.8190 H   0  0  0  0  0  0  0  0  0  0  0  0
   -2.9371   -0.1154   -1.2322 H   0  0  0  0  0  0  0  0  0  0  0  0
  1  8  1  0
  1  6  1  0
  1  4  1  0
  1  2  1  0
  2 10  1  0
  2  9  1  0
  2  5  1  0
  3 11  1  0
  3 12  1  0
  3  4  1  0
  3 13  1  0
  4  5  2  0
  5 15  1  0
  6 14  1  0
  6  7  2  3
  7 16  1  0
  7 17  1  0
M  END
