
     RDKit          3D

 22 22  0  0  0  0  0  0  0  0999 V2000
   -2.5219   -0.6412    0.0972 C   0  0  0  0  0  0  0  0  0  0  0  0
    2.1825   -1.0234    0.4527 C   0  0  0  0  0  0  0  0  0  0  0  0
   -1.2724    0.1534   -0.1313 C   0  0  0  0  0  0  0  0  0  0  0  0
   -3.5494    0.4428    0.0281 C   0  0  0  0  0  0  0  0  0  0  0  0
    0.7259   -1.1568    0.1910 C   0  0  0  0  0  0  0  0  0  0  0  0
    2.9439   -0.6255   -0.7611 C   0  0  0  0  0  0  0  0  0  0  0  0
    0.0374   -0.3427   -0.5745 C   0  0  0  0  0  0  0  0  0  0  0  0
   -1.5037    1.3214    0.4697 C   0  0  0  0  0  0  0  0  0  0  0  0
   -2.9442    1.5823    0.3673 C   0  0  0  0  0  0  0  0  0  0  0  0
    3.3641    0.6419   -0.8547 C   0  0  0  0  0  0  0  0  0  0  0  0
   -2.5712   -1.0267    1.1388 H   0  0  0  0  0  0  0  0  0  0  0  0
   -2.6679   -1.4138   -0.6697 H   0  0  0  0  0  0  0  0  0  0  0  0
    2.3495   -0.3207    1.2951 H   0  0  0  0  0  0  0  0  0  0  0  0
    2.5463   -2.0103    0.8110 H   0  0  0  0  0  0  0  0  0  0  0  0
   -4.4820    0.3956   -0.5152 H   0  0  0  0  0  0  0  0  0  0  0  0
    0.1637   -1.7648    0.8932 H   0  0  0  0  0  0  0  0  0  0  0  0
    3.5986   -1.3580   -1.2410 H   0  0  0  0  0  0  0  0  0  0  0  0
    0.6145    0.3333   -1.2079 H   0  0  0  0  0  0  0  0  0  0  0  0
   -0.7856    1.9220    1.0319 H   0  0  0  0  0  0  0  0  0  0  0  0
   -3.3585    2.5886    0.2803 H   0  0  0  0  0  0  0  0  0  0  0  0
    2.7033    1.4165   -0.5200 H   0  0  0  0  0  0  0  0  0  0  0  0
    4.4271    0.8861   -0.9163 H   0  0  0  0  0  0  0  0  0  0  0  0
  1  4  1  0
  1 11  1  0
  1  3  1  0
  1 12  1  0
  2 13  1  0
  2  5  1  0
  2  6  1  0
  2 14  1  0
  3  8  2  0
  3  7  1  0
  4 15  1  0
  4  9  2  0
  5 16  1  0
  5  7  2  3
  6 17  1  0
  6 10  2  3
  7 18  1  0
  8 19  1  0
  8  9  1  0
  9 20  1  0
 10 21  1  0
 10 22  1  0
M  END
