
     RDKit          3D

 22 22  0  0  0  0  0  0  0  0999 V2000
   -2.2835   -0.7174    0.1146 C   0  0  0  0  0  0  0  0  0  0  0  0
    2.2515   -0.9379    0.6568 C   0  0  0  0  0  0  0  0  0  0  0  0
   -1.3093    0.4211    0.1108 C   0  0  0  0  0  0  0  0  0  0  0  0
   -3.5718    0.0034   -0.1070 C   0  0  0  0  0  0  0  0  0  0  0  0
    0.7652   -0.8566    0.4776 C   0  0  0  0  0  0  0  0  0  0  0  0
    2.9539   -0.6229   -0.6354 C   0  0  0  0  0  0  0  0  0  0  0  0
    0.1509    0.3159    0.2881 C   0  0  0  0  0  0  0  0  0  0  0  0
   -1.9424    1.5695   -0.0790 C   0  0  0  0  0  0  0  0  0  0  0  0
   -3.3626    1.3049   -0.2154 C   0  0  0  0  0  0  0  0  0  0  0  0
    3.7923    0.4109   -0.7500 C   0  0  0  0  0  0  0  0  0  0  0  0
   -2.2881   -1.2371    1.0960 H   0  0  0  0  0  0  0  0  0  0  0  0
   -2.0791   -1.4218   -0.7193 H   0  0  0  0  0  0  0  0  0  0  0  0
    2.5659   -0.2550    1.4769 H   0  0  0  0  0  0  0  0  0  0  0  0
    2.5241   -1.9718    0.9567 H   0  0  0  0  0  0  0  0  0  0  0  0
   -4.5452   -0.4647   -0.1714 H   0  0  0  0  0  0  0  0  0  0  0  0
    0.1949   -1.7767    0.5139 H   0  0  0  0  0  0  0  0  0  0  0  0
    2.7731   -1.2559   -1.4995 H   0  0  0  0  0  0  0  0  0  0  0  0
    0.7409    1.2254    0.2616 H   0  0  0  0  0  0  0  0  0  0  0  0
   -1.4752    2.5449   -0.1252 H   0  0  0  0  0  0  0  0  0  0  0  0
   -4.1329    2.0464   -0.3796 H   0  0  0  0  0  0  0  0  0  0  0  0
    3.9956    1.0663    0.0914 H   0  0  0  0  0  0  0  0  0  0  0  0
    4.2818    0.6089   -1.6980 H   0  0  0  0  0  0  0  0  0  0  0  0
  1  4  1  0
  1 11  1  0
  1  3  1  0
  1 12  1  0
  2 13  1  0
  2  5  1  0
  2  6  1  0
  2 14  1  0
  3  8  2  0
  3  7  1  0
  4 15  1  0
  4  9  2  0
  5 16  1  0
  5  7  2  3
  6 17  1  0
  6 10  2  3
  7 18  1  0
  8 19  1  0
  8  9  1  0
  9 20  1  0
 10 21  1  0
 10 22  1  0
M  END
