
     RDKit          3D

 17 18  0  0  0  0  0  0  0  0999 V2000
    0.1356    0.9347   -0.4167 C   0  0  0  0  0  0  0  0  0  0  0  0
   -1.2603    0.2619   -0.4292 C   0  0  0  0  0  0  0  0  0  0  0  0
    0.4919    0.8234    1.0420 C   0  0  0  0  0  0  0  0  0  0  0  0
   -1.1024   -0.8357    0.6492 C   0  0  0  0  0  0  0  0  0  0  0  0
    1.1707   -0.0478   -1.0047 C   0  0  0  0  0  0  0  0  0  0  0  0
    0.3501   -0.6583    1.0296 C   0  0  0  0  0  0  0  0  0  0  0  0
    1.1863   -1.1011    0.0746 C   0  0  0  0  0  0  0  0  0  0  0  0
    0.1685    1.9615   -0.8389 H   0  0  0  0  0  0  0  0  0  0  0  0
   -1.5018   -0.1694   -1.4252 H   0  0  0  0  0  0  0  0  0  0  0  0
   -2.0481    0.9906   -0.1366 H   0  0  0  0  0  0  0  0  0  0  0  0
   -1.7628   -0.6353    1.5218 H   0  0  0  0  0  0  0  0  0  0  0  0
   -1.3155   -1.8505    0.2446 H   0  0  0  0  0  0  0  0  0  0  0  0
   -0.2271    1.3404    1.7210 H   0  0  0  0  0  0  0  0  0  0  0  0
    1.5293    1.1663    1.2717 H   0  0  0  0  0  0  0  0  0  0  0  0
    2.1711    0.4290   -1.0956 H   0  0  0  0  0  0  0  0  0  0  0  0
    0.8503   -0.4639   -1.9846 H   0  0  0  0  0  0  0  0  0  0  0  0
    1.1643   -2.1458   -0.2231 H   0  0  0  0  0  0  0  0  0  0  0  0
  1  5  1  0
  1  3  1  0
  1  2  1  0
  1  8  1  0
  2  4  1  0
  2  9  1  0
  2 10  1  0
  3 14  1  0
  3  6  1  0
  3 13  1  0
  4 11  1  0
  4  6  1  0
  4 12  1  0
  5  7  1  0
  5 15  1  0
  5 16  1  0
  6  7  2  0
  7 17  1  0
M  END
