
     RDKit          3D

 17 17  0  0  0  0  0  0  0  0999 V2000
   -0.8858    0.4555    0.2735 C   0  0  0  0  0  0  0  0  0  0  0  0
   -1.4971   -0.8382    0.4086 C   0  0  0  0  0  0  0  0  0  0  0  0
    1.5776   -0.0060   -0.0873 C   0  0  0  0  0  0  0  0  0  0  0  0
    2.7078    0.0532   -1.1052 C   0  0  0  0  0  0  0  0  0  0  0  0
   -2.1424    0.9592   -0.3570 C   0  0  0  0  0  0  0  0  0  0  0  0
   -2.7410   -0.2915   -0.2117 C   0  0  0  0  0  0  0  0  0  0  0  0
    0.2824    0.5029   -0.7137 C   0  0  0  0  0  2  0  0  0  0  0  0
   -0.6782    0.9674    1.2400 H   0  0  0  0  0  0  0  0  0  0  0  0
   -1.0520   -1.6442   -0.2172 H   0  0  0  0  0  0  0  0  0  0  0  0
   -1.6646   -1.1363    1.4669 H   0  0  0  0  0  0  0  0  0  0  0  0
    1.4473   -1.0565    0.2508 H   0  0  0  0  0  0  0  0  0  0  0  0
    1.8423    0.6246    0.7888 H   0  0  0  0  0  0  0  0  0  0  0  0
    2.8668    1.0995   -1.4436 H   0  0  0  0  0  0  0  0  0  0  0  0
    3.6462   -0.3173   -0.6412 H   0  0  0  0  0  0  0  0  0  0  0  0
    2.4686   -0.5844   -1.9831 H   0  0  0  0  0  0  0  0  0  0  0  0
   -3.7145   -0.7031   -0.4550 H   0  0  0  0  0  0  0  0  0  0  0  0
   -2.4634    1.9150   -0.7572 H   0  0  0  0  0  0  0  0  0  0  0  0
  1  2  1  0
  1  7  1  0
  1  8  1  0
  1  5  1  0
  2  9  1  0
  2 10  1  0
  2  6  1  0
  3 11  1  0
  3  7  1  0
  3  4  1  0
  3 12  1  0
  4 14  1  0
  4 15  1  0
  4 13  1  0
  5 17  1  0
  5  6  2  0
  6 16  1  0
M  RAD  1   7   3
M  END
