
     RDKit          3D

 22 24  0  0  0  0  0  0  0  0999 V2000
   -0.3336   -0.3248    0.0601 C   0  0  0  0  0  0  0  0  0  0  0  0
   -0.8118    1.1306    0.0799 C   0  0  0  0  0  0  0  0  0  0  0  0
    0.1349    0.6596   -1.0196 C   0  0  0  0  0  0  0  0  0  0  0  0
    0.6810   -0.7325    1.1517 C   0  0  0  0  0  0  0  0  0  0  0  0
   -1.5621   -1.1957   -0.2320 C   0  0  0  0  0  0  0  0  0  0  0  0
    2.1000   -0.7706    0.5756 C   0  0  0  0  0  0  0  0  0  0  0  0
   -2.2681    1.0326   -0.2212 C   0  0  0  0  0  0  0  0  0  0  0  0
    1.5415    1.1751   -0.8545 C   0  0  0  0  0  0  0  0  0  0  0  0
   -2.6762   -0.2184   -0.3767 C   0  0  0  0  0  0  0  0  0  0  0  0
    2.4417    0.5316   -0.0963 C   0  0  0  0  0  0  0  0  0  0  0  0
   -0.4463    1.7133    0.9529 H   0  0  0  0  0  0  0  0  0  0  0  0
   -0.2932    0.5263   -2.0364 H   0  0  0  0  0  0  0  0  0  0  0  0
    0.4320   -1.7429    1.5402 H   0  0  0  0  0  0  0  0  0  0  0  0
    0.6443   -0.0311    2.0134 H   0  0  0  0  0  0  0  0  0  0  0  0
   -1.4213   -1.7700   -1.1718 H   0  0  0  0  0  0  0  0  0  0  0  0
   -1.7795   -1.8842    0.6116 H   0  0  0  0  0  0  0  0  0  0  0  0
    2.8314   -0.9766    1.3860 H   0  0  0  0  0  0  0  0  0  0  0  0
    2.1700   -1.5893   -0.1731 H   0  0  0  0  0  0  0  0  0  0  0  0
   -2.9281    1.8898   -0.2996 H   0  0  0  0  0  0  0  0  0  0  0  0
   -3.7029   -0.4912   -0.5976 H   0  0  0  0  0  0  0  0  0  0  0  0
    1.8156    2.1097   -1.3330 H   0  0  0  0  0  0  0  0  0  0  0  0
    3.4305    0.9587    0.0403 H   0  0  0  0  0  0  0  0  0  0  0  0
  1  4  1  0
  1  2  1  0
  1  3  1  0
  1  5  1  0
  2  7  1  0
  2 11  1  0
  2  3  1  0
  3 12  1  0
  3  8  1  0
  4  6  1  0
  4 13  1  0
  4 14  1  0
  5 16  1  0
  5  9  1  0
  5 15  1  0
  6 17  1  0
  6 18  1  0
  6 10  1  0
  7 19  1  0
  7  9  2  0
  8 10  2  0
  8 21  1  0
  9 20  1  0
 10 22  1  0
M  END
