
     RDKit          3D

 22 23  0  0  0  0  0  0  0  0999 V2000
    0.4023   -0.9612   -0.7814 C   0  0  0  0  0  0  0  0  0  0  0  0
    0.7412    0.5509   -0.8367 C   0  0  0  0  0  0  0  0  0  0  0  0
   -1.0635   -1.3121   -0.4649 C   0  0  0  0  0  0  0  0  0  0  0  0
    1.5915    0.8385    0.4136 C   0  0  0  0  0  0  0  0  0  0  0  0
    1.3098   -1.4798    0.2861 C   0  0  0  0  0  0  0  0  0  0  0  0
   -0.4182    1.5143   -0.9944 C   0  0  0  0  0  0  0  0  0  0  0  0
    1.9412   -0.5113    0.9296 C   0  0  0  0  0  0  0  0  0  0  0  0
   -1.5540   -0.6740    0.8060 C   0  0  0  0  0  0  0  0  0  0  0  0
   -1.7422    0.6433    0.9246 C   0  0  0  0  0  0  0  0  0  0  0  0
   -1.4668    1.5983   -0.1640 C   0  0  0  0  0  0  0  0  0  0  0  0
    0.6779   -1.4409   -1.7466 H   0  0  0  0  0  0  0  0  0  0  0  0
    1.4044    0.7031   -1.7190 H   0  0  0  0  0  0  0  0  0  0  0  0
   -1.1572   -2.4159   -0.3702 H   0  0  0  0  0  0  0  0  0  0  0  0
   -1.7151   -1.0069   -1.3125 H   0  0  0  0  0  0  0  0  0  0  0  0
    2.5139    1.3985    0.1479 H   0  0  0  0  0  0  0  0  0  0  0  0
    1.0312    1.3939    1.1960 H   0  0  0  0  0  0  0  0  0  0  0  0
   -1.8235   -1.3162    1.6355 H   0  0  0  0  0  0  0  0  0  0  0  0
    1.4188   -2.5303    0.5361 H   0  0  0  0  0  0  0  0  0  0  0  0
   -0.3453    2.2487   -1.7876 H   0  0  0  0  0  0  0  0  0  0  0  0
    2.6148   -0.6880    1.7616 H   0  0  0  0  0  0  0  0  0  0  0  0
   -2.2074    1.0208    1.8261 H   0  0  0  0  0  0  0  0  0  0  0  0
   -2.1537    2.4263   -0.2857 H   0  0  0  0  0  0  0  0  0  0  0  0
  1  3  1  0
  1  2  1  0
  1 11  1  0
  1  5  1  0
  2  6  1  0
  2  4  1  0
  2 12  1  0
  3 14  1  0
  3 13  1  0
  3  8  1  0
  4 16  1  0
  4 15  1  0
  4  7  1  0
  5  7  2  0
  5 18  1  0
  6 10  2  0
  6 19  1  0
  7 20  1  0
  8  9  2  0
  8 17  1  0
  9 10  1  0
  9 21  1  0
 10 22  1  0
M  END
