
     RDKit          3D

 19 19  0  0  0  0  0  0  0  0999 V2000
    1.5632    0.2649   -0.1218 C   0  0  0  0  0  0  0  0  0  0  0  0
    0.2437    0.8953    0.2151 C   0  0  0  0  0  0  0  0  0  0  0  0
    0.7793   -0.9159   -0.6161 C   0  0  0  0  0  0  0  0  0  0  0  0
    2.4402   -0.0353    1.0980 C   0  0  0  0  0  0  0  0  0  0  0  0
   -2.9328    0.2966    0.0619 C   0  0  0  0  0  0  0  0  0  0  0  0
   -0.5661   -0.2907   -0.2863 C   0  0  0  0  0  0  0  0  0  0  0  0
   -1.8513   -0.6312   -0.3933 C   0  0  0  0  0  0  0  0  0  0  0  0
    2.1041    0.7981   -0.9349 H   0  0  0  0  0  0  0  0  0  0  0  0
    0.0800    1.0649    1.3025 H   0  0  0  0  0  0  0  0  0  0  0  0
    0.0410    1.8056   -0.3905 H   0  0  0  0  0  0  0  0  0  0  0  0
    0.9429   -1.8509   -0.0355 H   0  0  0  0  0  0  0  0  0  0  0  0
    0.8927   -1.0722   -1.7111 H   0  0  0  0  0  0  0  0  0  0  0  0
    2.8311    0.9158    1.5165 H   0  0  0  0  0  0  0  0  0  0  0  0
    1.8684   -0.5675    1.8892 H   0  0  0  0  0  0  0  0  0  0  0  0
    3.2996   -0.6672    0.7902 H   0  0  0  0  0  0  0  0  0  0  0  0
   -2.8197    0.5071    1.1464 H   0  0  0  0  0  0  0  0  0  0  0  0
   -3.9245   -0.1705   -0.1122 H   0  0  0  0  0  0  0  0  0  0  0  0
   -2.8789    1.2490   -0.5067 H   0  0  0  0  0  0  0  0  0  0  0  0
   -2.1129   -1.5958   -0.8165 H   0  0  0  0  0  0  0  0  0  0  0  0
  1  4  1  0
  1  2  1  0
  1  3  1  0
  1  8  1  0
  2  6  1  0
  2 10  1  0
  2  9  1  0
  3  6  1  0
  3 12  1  0
  3 11  1  0
  4 15  1  0
  4 13  1  0
  4 14  1  0
  5  7  1  0
  5 16  1  0
  5 18  1  0
  5 17  1  0
  6  7  2  3
  7 19  1  0
M  END
