
     RDKit          3D

 22 22  0  0  0  0  0  0  0  0999 V2000
    0.3889   -1.1629    0.3853 C   0  0  0  0  0  0  0  0  0  0  0  0
    3.5389    0.9232   -0.1034 C   0  0  0  0  0  0  0  0  0  0  0  0
   -0.6661   -0.2952   -0.2185 C   0  0  0  0  0  0  0  0  0  0  0  0
    1.6660   -0.4223    0.6092 C   0  0  0  0  0  0  0  0  0  0  0  0
    2.3053    0.1348   -0.4282 C   0  0  0  0  0  0  0  0  0  0  0  0
   -1.5880   -0.9084   -1.0587 C   0  0  0  0  0  0  0  0  0  0  0  0
   -1.1663    0.7497    0.5334 C   0  0  0  0  0  0  0  0  0  0  0  0
   -2.9148   -0.5579   -1.1087 C   0  0  0  0  0  0  0  0  0  0  0  0
   -2.4367    1.2743    0.3371 C   0  0  0  0  0  0  0  0  0  0  0  0
   -3.3546    0.5139   -0.3611 C   0  0  0  0  0  0  0  0  0  0  0  0
    0.5147   -2.0757   -0.2100 H   0  0  0  0  0  0  0  0  0  0  0  0
    0.0114   -1.5028    1.3818 H   0  0  0  0  0  0  0  0  0  0  0  0
    4.2665    0.2132    0.3603 H   0  0  0  0  0  0  0  0  0  0  0  0
    4.0290    1.3320   -0.9945 H   0  0  0  0  0  0  0  0  0  0  0  0
    3.3116    1.7711    0.5894 H   0  0  0  0  0  0  0  0  0  0  0  0
    2.3253   -0.8845    1.3528 H   0  0  0  0  0  0  0  0  0  0  0  0
    2.4090   -0.5351   -1.2885 H   0  0  0  0  0  0  0  0  0  0  0  0
   -1.2346   -1.6403   -1.7619 H   0  0  0  0  0  0  0  0  0  0  0  0
   -0.5694    1.2480    1.2760 H   0  0  0  0  0  0  0  0  0  0  0  0
   -3.7041   -1.2160   -1.4752 H   0  0  0  0  0  0  0  0  0  0  0  0
   -2.7816    2.1318    0.9039 H   0  0  0  0  0  0  0  0  0  0  0  0
   -4.3503    0.9088   -0.5273 H   0  0  0  0  0  0  0  0  0  0  0  0
  1 12  1  0
  1 11  1  0
  1  4  1  0
  1  3  1  0
  2  5  1  0
  2 13  1  0
  2 15  1  0
  2 14  1  0
  3  6  2  0
  3  7  1  0
  4  5  2  3
  4 16  1  0
  5 17  1  0
  6  8  1  0
  6 18  1  0
  7  9  2  0
  7 19  1  0
  8 20  1  0
  8 10  2  0
  9 21  1  0
  9 10  1  0
 10 22  1  0
M  END
