
     RDKit          3D

 19 19  0  0  0  0  0  0  0  0999 V2000
    0.4864    0.2208    0.2173 C   0  0  0  0  0  0  0  0  0  0  0  0
   -0.8812   -0.3749    0.3582 C   0  0  0  0  0  0  0  0  0  0  0  0
    0.5722    1.5893    0.8277 C   0  0  0  0  0  0  0  0  0  0  0  0
    1.1856    0.0209   -1.0886 C   0  0  0  0  0  0  0  0  0  0  0  0
   -1.8237   -0.2300   -0.7806 C   0  0  0  0  0  0  0  0  0  0  0  0
    0.8149   -0.9117    1.1464 C   0  0  0  0  0  0  0  0  0  0  0  0
   -0.1060   -1.6176    0.4765 C   0  0  0  0  0  0  0  0  0  0  0  0
   -1.3366   -0.0748    1.3162 H   0  0  0  0  0  0  0  0  0  0  0  0
   -1.8758    0.8557   -1.0395 H   0  0  0  0  0  0  0  0  0  0  0  0
   -2.8415   -0.5028   -0.4217 H   0  0  0  0  0  0  0  0  0  0  0  0
   -1.6180   -0.8586   -1.6552 H   0  0  0  0  0  0  0  0  0  0  0  0
    0.4419    1.5864    1.9196 H   0  0  0  0  0  0  0  0  0  0  0  0
   -0.2381    2.2135    0.3723 H   0  0  0  0  0  0  0  0  0  0  0  0
    1.9914    0.7954   -1.1545 H   0  0  0  0  0  0  0  0  0  0  0  0
    1.7287   -0.9563   -1.1540 H   0  0  0  0  0  0  0  0  0  0  0  0
    1.5559    2.0203    0.5096 H   0  0  0  0  0  0  0  0  0  0  0  0
    0.5226    0.0928   -1.9720 H   0  0  0  0  0  0  0  0  0  0  0  0
    1.7824   -1.1897    1.5721 H   0  0  0  0  0  0  0  0  0  0  0  0
   -0.3611   -2.6789    0.5501 H   0  0  0  0  0  0  0  0  0  0  0  0
  1  6  1  0
  1  4  1  0
  1  3  1  0
  1  2  1  0
  2  5  1  0
  2  7  1  0
  2  8  1  0
  3 16  1  0
  3 12  1  0
  3 13  1  0
  4 14  1  0
  4 17  1  0
  4 15  1  0
  5 10  1  0
  5 11  1  0
  5  9  1  0
  6 18  1  0
  6  7  2  0
  7 19  1  0
M  END
