
     RDKit          3D

 19 19  0  0  0  0  0  0  0  0999 V2000
   -1.7088    0.6601   -0.1577 C   0  0  0  0  0  0  0  0  0  0  0  0
   -1.9124    0.5824    1.2572 C   0  0  0  0  0  0  0  0  0  0  0  0
    1.7878    0.4590   -0.2558 C   0  0  0  0  0  0  0  0  0  0  0  0
   -1.9899   -0.6075   -0.9624 C   0  0  0  0  0  0  0  0  0  0  0  0
    2.5598   -0.8525   -0.3322 C   0  0  0  0  0  0  0  0  0  0  0  0
   -0.4723    0.5333    0.7330 C   0  0  0  0  0  0  0  0  0  0  0  0
    0.8444    0.4449    0.9121 C   0  0  0  0  0  0  0  0  0  0  0  0
   -1.8065    1.6552   -0.6407 H   0  0  0  0  0  0  0  0  0  0  0  0
   -2.2276   -0.3917    1.6886 H   0  0  0  0  0  0  0  0  0  0  0  0
   -2.1264    1.5402    1.7756 H   0  0  0  0  0  0  0  0  0  0  0  0
    2.5019    1.3003   -0.1304 H   0  0  0  0  0  0  0  0  0  0  0  0
    1.2373    0.6114   -1.2109 H   0  0  0  0  0  0  0  0  0  0  0  0
    1.8583   -1.7035   -0.4682 H   0  0  0  0  0  0  0  0  0  0  0  0
    3.1508   -1.0082    0.5957 H   0  0  0  0  0  0  0  0  0  0  0  0
    3.2564   -0.8241   -1.1964 H   0  0  0  0  0  0  0  0  0  0  0  0
   -1.3871   -0.5877   -1.8942 H   0  0  0  0  0  0  0  0  0  0  0  0
   -1.7375   -1.5324   -0.3983 H   0  0  0  0  0  0  0  0  0  0  0  0
   -3.0653   -0.6361   -1.2349 H   0  0  0  0  0  0  0  0  0  0  0  0
    1.2372    0.3569    1.9199 H   0  0  0  0  0  0  0  0  0  0  0  0
  1  4  1  0
  1  6  1  0
  1  2  1  0
  1  8  1  0
  2 10  1  0
  2  6  1  0
  2  9  1  0
  3  5  1  0
  3 12  1  0
  3  7  1  0
  3 11  1  0
  4 16  1  0
  4 17  1  0
  4 18  1  0
  5 13  1  0
  5 14  1  0
  5 15  1  0
  6  7  2  3
  7 19  1  0
M  END
