
     RDKit          3D

 17 17  0  0  0  0  0  0  0  0999 V2000
    0.3865   -0.0691    0.4422 C   0  0  0  0  0  0  0  0  0  0  0  0
   -0.6601   -1.0845   -0.0516 C   0  0  0  0  0  0  0  0  0  0  0  0
   -1.9782   -0.3135   -0.1801 C   0  0  0  0  0  0  0  0  0  0  0  0
   -0.3831    1.1922    0.6190 C   0  0  0  0  0  0  0  0  0  0  0  0
   -1.6543    1.0597    0.2838 C   0  0  0  0  0  0  0  0  0  0  0  0
    1.4847    0.1374   -0.5707 C   0  0  0  0  0  0  0  0  0  0  0  0
    2.7656   -0.1098   -0.2824 C   0  0  0  0  0  0  0  0  0  0  0  0
    0.7935   -0.3873    1.4282 H   0  0  0  0  0  0  0  0  0  0  0  0
   -0.7726   -1.9038    0.6923 H   0  0  0  0  0  0  0  0  0  0  0  0
   -0.3835   -1.5399   -1.0289 H   0  0  0  0  0  0  0  0  0  0  0  0
   -2.7663   -0.7578    0.4650 H   0  0  0  0  0  0  0  0  0  0  0  0
   -2.3218   -0.2832   -1.2364 H   0  0  0  0  0  0  0  0  0  0  0  0
   -2.3749    1.8690    0.3397 H   0  0  0  0  0  0  0  0  0  0  0  0
    0.0438    2.1215    0.9832 H   0  0  0  0  0  0  0  0  0  0  0  0
    1.2276    0.4905   -1.5660 H   0  0  0  0  0  0  0  0  0  0  0  0
    3.5304    0.0463   -1.0362 H   0  0  0  0  0  0  0  0  0  0  0  0
    3.0626   -0.4675    0.6987 H   0  0  0  0  0  0  0  0  0  0  0  0
  1  8  1  0
  1  2  1  0
  1  4  1  0
  1  6  1  0
  2 10  1  0
  2  9  1  0
  2  3  1  0
  3 11  1  0
  3 12  1  0
  3  5  1  0
  4 14  1  0
  4  5  2  0
  5 13  1  0
  6 15  1  0
  6  7  2  3
  7 16  1  0
  7 17  1  0
M  END
