
     RDKit          3D

 17 18  0  0  0  0  0  0  0  0999 V2000
   -0.0697    0.8459    0.1807 C   0  0  0  0  0  0  0  0  0  0  0  0
   -0.6788   -0.4600    0.4471 C   0  0  0  0  0  0  0  0  0  0  0  0
   -0.1485   -0.2308   -0.9058 C   0  0  0  0  0  0  0  0  0  0  0  0
    1.4018    1.1138    0.2369 C   0  0  0  0  0  0  0  0  0  0  0  0
   -2.1726   -0.5036    0.5724 C   0  0  0  0  0  0  0  0  0  0  0  0
    1.2740   -0.6467   -1.1355 C   0  0  0  0  0  0  0  0  0  0  0  0
    2.0236   -0.2005   -0.1180 C   0  0  0  0  0  0  0  0  0  0  0  0
   -0.1304   -1.1337    1.1240 H   0  0  0  0  0  0  0  0  0  0  0  0
   -0.7369    1.7189    0.1125 H   0  0  0  0  0  0  0  0  0  0  0  0
   -0.7668    0.0831   -1.7565 H   0  0  0  0  0  0  0  0  0  0  0  0
    1.6464    1.8684   -0.5533 H   0  0  0  0  0  0  0  0  0  0  0  0
    1.7694    1.4828    1.2030 H   0  0  0  0  0  0  0  0  0  0  0  0
   -2.5303   -1.5230    0.3285 H   0  0  0  0  0  0  0  0  0  0  0  0
   -2.5570   -0.2452    1.5672 H   0  0  0  0  0  0  0  0  0  0  0  0
   -2.5893    0.1916   -0.1867 H   0  0  0  0  0  0  0  0  0  0  0  0
    1.5074   -1.6135   -1.5933 H   0  0  0  0  0  0  0  0  0  0  0  0
    2.7579   -0.7474    0.4769 H   0  0  0  0  0  0  0  0  0  0  0  0
  1  9  1  0
  1  3  1  0
  1  2  1  0
  1  4  1  0
  2  8  1  0
  2  3  1  0
  2  5  1  0
  3 10  1  0
  3  6  1  0
  4 11  1  0
  4 12  1  0
  4  7  1  0
  5 15  1  0
  5 13  1  0
  5 14  1  0
  6  7  2  0
  6 16  1  0
  7 17  1  0
M  END
