
     RDKit          3D

 17 18  0  0  0  0  0  0  0  0999 V2000
   -0.0665    0.8321    0.0364 C   0  0  0  0  0  0  0  0  0  0  0  0
   -0.7615   -0.4347    0.5210 C   0  0  0  0  0  0  0  0  0  0  0  0
   -0.1363   -0.3990   -0.8695 C   0  0  0  0  0  0  0  0  0  0  0  0
    1.4052    1.0056    0.4239 C   0  0  0  0  0  0  0  0  0  0  0  0
   -2.2866   -0.3648    0.5314 C   0  0  0  0  0  0  0  0  0  0  0  0
    1.2780   -0.8576   -0.9717 C   0  0  0  0  0  0  0  0  0  0  0  0
    2.1134   -0.0927   -0.2873 C   0  0  0  0  0  0  0  0  0  0  0  0
   -0.2300   -1.0363    1.2905 H   0  0  0  0  0  0  0  0  0  0  0  0
   -0.6690    1.6899   -0.3343 H   0  0  0  0  0  0  0  0  0  0  0  0
   -0.7362   -0.1936   -1.7821 H   0  0  0  0  0  0  0  0  0  0  0  0
    1.7821    1.9889    0.0725 H   0  0  0  0  0  0  0  0  0  0  0  0
    1.5398    0.9118    1.5223 H   0  0  0  0  0  0  0  0  0  0  0  0
   -2.6985   -1.3907    0.4349 H   0  0  0  0  0  0  0  0  0  0  0  0
   -2.6245    0.0655    1.4969 H   0  0  0  0  0  0  0  0  0  0  0  0
   -2.6874    0.2593   -0.2969 H   0  0  0  0  0  0  0  0  0  0  0  0
    1.5943   -1.7202   -1.5484 H   0  0  0  0  0  0  0  0  0  0  0  0
    3.1837   -0.2637   -0.2395 H   0  0  0  0  0  0  0  0  0  0  0  0
  1  9  1  0
  1  3  1  0
  1  2  1  0
  1  4  1  0
  2  8  1  0
  2  3  1  0
  2  5  1  0
  3 10  1  0
  3  6  1  0
  4 11  1  0
  4 12  1  0
  4  7  1  0
  5 15  1  0
  5 13  1  0
  5 14  1  0
  6  7  2  0
  6 16  1  0
  7 17  1  0
M  END
