
     RDKit          3D

 17 18  0  0  0  0  0  0  0  0999 V2000
   -0.8602   -0.8621   -0.2376 C   0  0  0  0  0  0  0  0  0  0  0  0
   -1.1240    0.6319   -0.4616 C   0  0  0  0  0  0  0  0  0  0  0  0
   -1.7157   -0.0716    0.7503 C   0  0  0  0  0  0  0  0  0  0  0  0
    0.5553   -1.2335    0.2500 C   0  0  0  0  0  0  0  0  0  0  0  0
    1.6090   -0.3158   -0.3766 C   0  0  0  0  0  0  0  0  0  0  0  0
    0.0199    1.5631   -0.1428 C   0  0  0  0  0  0  0  0  0  0  0  0
    1.2849    1.1235   -0.0897 C   0  0  0  0  0  0  0  0  0  0  0  0
   -1.4121   -1.5426   -0.9204 H   0  0  0  0  0  0  0  0  0  0  0  0
   -1.8345    0.8793   -1.2781 H   0  0  0  0  0  0  0  0  0  0  0  0
   -1.2406    0.1806    1.7233 H   0  0  0  0  0  0  0  0  0  0  0  0
   -2.8049   -0.2690    0.6656 H   0  0  0  0  0  0  0  0  0  0  0  0
    0.6256   -1.1835    1.3587 H   0  0  0  0  0  0  0  0  0  0  0  0
    0.7698   -2.2822   -0.0464 H   0  0  0  0  0  0  0  0  0  0  0  0
    1.6270   -0.4703   -1.4773 H   0  0  0  0  0  0  0  0  0  0  0  0
    2.6139   -0.5613    0.0283 H   0  0  0  0  0  0  0  0  0  0  0  0
    2.0817    1.8085    0.1833 H   0  0  0  0  0  0  0  0  0  0  0  0
   -0.1951    2.6051    0.0711 H   0  0  0  0  0  0  0  0  0  0  0  0
  1  3  1  0
  1  4  1  0
  1  8  1  0
  1  2  1  0
  2  9  1  0
  2  3  1  0
  2  6  1  0
  3 11  1  0
  3 10  1  0
  4 13  1  0
  4  5  1  0
  4 12  1  0
  5 14  1  0
  5  7  1  0
  5 15  1  0
  6 17  1  0
  6  7  2  0
  7 16  1  0
M  END
