
     RDKit          3D

 17 17  0  0  0  0  0  0  0  0999 V2000
    0.2220    0.3124    0.1964 C   0  0  0  0  0  0  0  0  0  0  0  0
   -0.9708   -0.3052   -0.5361 C   0  0  0  0  0  0  0  0  0  0  0  0
   -0.2478    1.6997   -0.2309 C   0  0  0  0  0  0  0  0  0  0  0  0
   -1.9707   -0.9966    0.3906 C   0  0  0  0  0  0  0  0  0  0  0  0
    1.5474   -0.0724   -0.4147 C   0  0  0  0  0  0  0  0  0  0  0  0
    2.5483   -0.5462    0.3313 C   0  0  0  0  0  0  0  0  0  0  0  0
   -1.4392    1.0829   -0.9483 C   0  0  0  0  0  2  0  0  0  0  0  0
    0.1840    0.1841    1.3029 H   0  0  0  0  0  0  0  0  0  0  0  0
   -0.6999   -0.9272   -1.4182 H   0  0  0  0  0  0  0  0  0  0  0  0
    0.4325    2.2211   -0.9395 H   0  0  0  0  0  0  0  0  0  0  0  0
   -0.5688    2.3253    0.6294 H   0  0  0  0  0  0  0  0  0  0  0  0
   -1.5148   -1.9200    0.8055 H   0  0  0  0  0  0  0  0  0  0  0  0
   -2.2674   -0.3317    1.2308 H   0  0  0  0  0  0  0  0  0  0  0  0
   -2.8793   -1.2758   -0.1834 H   0  0  0  0  0  0  0  0  0  0  0  0
    1.6942    0.0350   -1.4863 H   0  0  0  0  0  0  0  0  0  0  0  0
    2.4395   -0.6693    1.4045 H   0  0  0  0  0  0  0  0  0  0  0  0
    3.4906   -0.8162   -0.1342 H   0  0  0  0  0  0  0  0  0  0  0  0
  1  2  1  0
  1  5  1  0
  1  8  1  0
  1  3  1  0
  2  4  1  0
  2  7  1  0
  2  9  1  0
  3  7  1  0
  3 11  1  0
  3 10  1  0
  4 14  1  0
  4 12  1  0
  4 13  1  0
  5  6  2  3
  5 15  1  0
  6 17  1  0
  6 16  1  0
M  RAD  1   7   3
M  END
