
     RDKit          3D

 17 17  0  0  0  0  0  0  0  0999 V2000
    0.2403    0.3605    0.2970 C   0  0  0  0  0  0  0  0  0  0  0  0
   -0.8825   -0.2926   -0.4519 C   0  0  0  0  0  0  0  0  0  0  0  0
   -0.2693    1.7024   -0.2090 C   0  0  0  0  0  0  0  0  0  0  0  0
   -1.9238   -0.9997    0.3623 C   0  0  0  0  0  0  0  0  0  0  0  0
    1.5359   -0.0026   -0.3353 C   0  0  0  0  0  0  0  0  0  0  0  0
    2.5764   -0.4931    0.3038 C   0  0  0  0  0  0  0  0  0  0  0  0
   -1.4358    1.0397   -0.9288 C   0  0  0  0  0  2  0  0  0  0  0  0
    0.2034    0.3194    1.3935 H   0  0  0  0  0  0  0  0  0  0  0  0
   -0.5964   -0.9089   -1.3300 H   0  0  0  0  0  0  0  0  0  0  0  0
    0.4005    2.1381   -0.9930 H   0  0  0  0  0  0  0  0  0  0  0  0
   -0.6133    2.3971    0.5686 H   0  0  0  0  0  0  0  0  0  0  0  0
   -1.5834   -1.9909    0.7536 H   0  0  0  0  0  0  0  0  0  0  0  0
   -2.2786   -0.3885    1.2036 H   0  0  0  0  0  0  0  0  0  0  0  0
   -2.7624   -1.2470   -0.3381 H   0  0  0  0  0  0  0  0  0  0  0  0
    1.5922    0.1435   -1.4180 H   0  0  0  0  0  0  0  0  0  0  0  0
    2.5289   -0.6503    1.3826 H   0  0  0  0  0  0  0  0  0  0  0  0
    3.2680   -1.1273   -0.2609 H   0  0  0  0  0  0  0  0  0  0  0  0
  1  2  1  0
  1  5  1  0
  1  8  1  0
  1  3  1  0
  2  4  1  0
  2  7  1  0
  2  9  1  0
  3  7  1  0
  3 11  1  0
  3 10  1  0
  4 14  1  0
  4 12  1  0
  4 13  1  0
  5  6  2  3
  5 15  1  0
  6 17  1  0
  6 16  1  0
M  RAD  1   7   3
M  END
