
     RDKit          3D

 21 22  0  0  0  0  0  0  0  0999 V2000
   -1.7749    1.7946   -1.0171 O   0  0  0  0  0  0  0  0  0  0  0  0
   -2.4945    0.6783   -0.8502 O   0  0  0  0  0  0  0  0  0  0  0  0
   -0.8410    1.4294   -0.0432 C   0  0  0  0  0  0  0  0  0  0  0  0
   -1.6424    0.1862    0.1426 C   0  0  0  0  0  0  0  0  0  0  0  0
    0.5677    1.3129   -0.6437 C   0  0  0  0  0  0  0  0  0  0  0  0
   -1.0239   -1.1561   -0.2746 C   0  0  0  0  0  0  0  0  0  0  0  0
    1.5367    0.5946    0.3063 C   0  0  0  0  0  0  0  0  0  0  0  0
    1.4849   -0.9326    0.1643 C   0  0  0  0  0  0  0  0  0  0  0  0
    0.1565   -1.5465    0.6264 C   0  0  0  0  0  0  0  0  0  0  0  0
   -0.8914    2.1127    0.8331 H   0  0  0  0  0  0  0  0  0  0  0  0
   -2.1588    0.1465    1.1271 H   0  0  0  0  0  0  0  0  0  0  0  0
    2.5702    0.9206    0.0580 H   0  0  0  0  0  0  0  0  0  0  0  0
    1.3466    0.8904    1.3617 H   0  0  0  0  0  0  0  0  0  0  0  0
    0.5459    0.8183   -1.6393 H   0  0  0  0  0  0  0  0  0  0  0  0
    0.9431    2.3456   -0.8111 H   0  0  0  0  0  0  0  0  0  0  0  0
    2.2984   -1.3638    0.7874 H   0  0  0  0  0  0  0  0  0  0  0  0
    1.6940   -1.2248   -0.8883 H   0  0  0  0  0  0  0  0  0  0  0  0
    0.2671   -2.6523    0.5922 H   0  0  0  0  0  0  0  0  0  0  0  0
   -0.7230   -1.1503   -1.3450 H   0  0  0  0  0  0  0  0  0  0  0  0
   -1.8137   -1.9313   -0.1717 H   0  0  0  0  0  0  0  0  0  0  0  0
   -0.0474   -1.2723    1.6850 H   0  0  0  0  0  0  0  0  0  0  0  0
  1  2  1  0
  1  3  1  0
  2  4  1  0
  3  4  1  0
  3  5  1  0
  3 10  1  0
  4  6  1  0
  4 11  1  0
  5  7  1  0
  5 14  1  0
  5 15  1  0
  6 20  1  0
  6 19  1  0
  6  9  1  0
  7 12  1  0
  7 13  1  0
  7  8  1  0
  8 16  1  0
  8 17  1  0
  8  9  1  0
  9 21  1  0
  9 18  1  0
M  END
