
     RDKit          3D

 21 22  0  0  0  0  0  0  0  0999 V2000
    1.5584   -0.1208    0.5435 C   0  0  0  0  0  0  0  0  0  0  0  0
   -0.2522   -1.0795    0.2058 C   0  0  0  0  0  0  0  0  0  0  0  0
    1.1682   -1.4395   -0.0734 C   0  0  0  0  0  0  0  0  0  0  0  0
   -2.2089    0.7542    0.6706 C   0  0  0  0  0  0  0  0  0  0  0  0
    2.1558    0.7672   -0.5372 C   0  0  0  0  0  0  0  0  0  0  0  0
    0.1355    0.2024    0.8856 C   0  0  0  0  0  0  0  0  0  0  0  0
   -1.0788   -0.6716   -0.9599 C   0  0  0  0  0  0  0  0  0  0  0  0
   -0.7999    1.1550    0.9998 C   0  0  0  0  0  0  0  0  0  0  0  0
   -2.1295    0.1115   -0.6823 C   0  0  0  0  0  0  0  0  0  0  0  0
    2.1673   -0.1811    1.4694 H   0  0  0  0  0  0  0  0  0  0  0  0
   -0.8192   -1.7330    0.8830 H   0  0  0  0  0  0  0  0  0  0  0  0
    1.4958   -2.2689    0.6015 H   0  0  0  0  0  0  0  0  0  0  0  0
    1.4513   -1.5851   -1.1279 H   0  0  0  0  0  0  0  0  0  0  0  0
   -2.4591   -0.0628    1.3932 H   0  0  0  0  0  0  0  0  0  0  0  0
   -2.9049    1.5983    0.7029 H   0  0  0  0  0  0  0  0  0  0  0  0
    2.9498    0.2372   -1.0824 H   0  0  0  0  0  0  0  0  0  0  0  0
    2.4725    1.7034   -0.0563 H   0  0  0  0  0  0  0  0  0  0  0  0
    1.3262    0.9472   -1.2649 H   0  0  0  0  0  0  0  0  0  0  0  0
   -0.9954   -1.1161   -1.9491 H   0  0  0  0  0  0  0  0  0  0  0  0
   -2.6949    0.5735   -1.4806 H   0  0  0  0  0  0  0  0  0  0  0  0
   -0.5380    2.2085    0.8587 H   0  0  0  0  0  0  0  0  0  0  0  0
  1 10  1  0
  1  3  1  0
  1  6  1  0
  1  5  1  0
  2  3  1  0
  2  7  1  0
  2 11  1  0
  2  6  1  0
  3 13  1  0
  3 12  1  0
  4 14  1  0
  4  9  1  0
  4  8  1  0
  4 15  1  0
  5 17  1  0
  5 16  1  0
  5 18  1  0
  6  8  2  0
  7 19  1  0
  7  9  2  0
  8 21  1  0
  9 20  1  0
M  END
