
     RDKit          3D

 20 20  0  0  0  0  0  0  0  0999 V2000
    2.2834   -1.0420    0.3795 C   0  0  0  0  0  0  0  0  0  0  0  0
    0.1029   -0.3491   -0.2953 C   0  0  0  0  0  0  0  0  0  0  0  0
   -0.7037    0.7553   -0.5634 C   0  0  0  0  0  0  0  0  0  0  0  0
    1.4037   -0.3205   -0.5886 C   0  0  0  0  0  0  0  0  0  0  0  0
   -0.5261   -1.5691   -0.1962 C   0  0  0  0  0  0  0  0  0  0  0  0
   -1.8300    0.7928    0.2165 C   0  0  0  0  0  0  0  0  0  0  0  0
   -1.8586   -1.6275    0.1924 C   0  0  0  0  0  0  0  0  0  0  0  0
   -2.4771   -0.4134    0.4672 C   0  0  0  0  0  0  0  0  0  0  0  0
    0.5615    3.0343   -0.4588 C   0  0  0  0  0  0  0  0  0  0  0  0
   -0.1526    1.9477   -0.6903 C   0  0  0  0  0  0  0  0  0  0  0  0
    2.0244   -0.6935    1.4086 H   0  0  0  0  0  0  0  0  0  0  0  0
    3.3290   -0.7636    0.1623 H   0  0  0  0  0  0  0  0  0  0  0  0
    2.2136   -2.1357    0.2600 H   0  0  0  0  0  0  0  0  0  0  0  0
    1.7614   -0.2838   -1.6122 H   0  0  0  0  0  0  0  0  0  0  0  0
    0.0276   -2.5004   -0.1904 H   0  0  0  0  0  0  0  0  0  0  0  0
   -2.3386    1.6901    0.5380 H   0  0  0  0  0  0  0  0  0  0  0  0
   -2.4870   -2.4949   -0.0027 H   0  0  0  0  0  0  0  0  0  0  0  0
   -3.3572   -0.3999    1.0776 H   0  0  0  0  0  0  0  0  0  0  0  0
    0.4113    3.5537    0.4921 H   0  0  0  0  0  0  0  0  0  0  0  0
    1.6121    2.8195   -0.5964 H   0  0  0  0  0  0  0  0  0  0  0  0
  1 13  1  0
  1 11  1  0
  1 12  1  0
  1  4  1  0
  2  4  2  3
  2  3  1  0
  2  5  1  0
  3  6  1  0
  3 10  2  3
  4 14  1  0
  5 15  1  0
  5  7  2  0
  6 16  1  0
  6  8  2  0
  7 17  1  0
  7  8  1  0
  8 18  1  0
  9 20  1  0
  9 10  2  3
  9 19  1  0
M  END
