
     RDKit          3D

 20 22  0  0  0  0  0  0  0  0999 V2000
   -0.5304    0.2991   -0.4197 C   0  0  0  0  0  0  0  0  0  0  0  0
    0.7134    0.8969   -0.8324 C   0  0  0  0  0  0  0  0  0  0  0  0
    0.4191    0.8448    0.6309 C   0  0  0  0  0  0  0  0  0  0  0  0
    1.9386    0.0523   -0.9626 C   0  0  0  0  0  0  0  0  0  0  0  0
   -0.8174   -1.1260   -0.2751 C   0  0  0  0  0  0  0  0  0  0  0  0
   -1.8485    0.9276   -0.4131 C   0  0  0  0  0  0  0  0  0  0  0  0
    1.3627   -0.1498    1.2392 C   0  0  0  0  0  0  0  0  0  0  0  0
    2.0243   -0.7803    0.2598 C   0  0  0  0  0  0  0  0  0  0  0  0
   -1.9654   -1.1690    0.4062 C   0  0  0  0  0  0  0  0  0  0  0  0
   -2.6023    0.1566    0.3736 C   0  0  0  0  0  0  0  0  0  0  0  0
    0.7185    1.8793   -1.3267 H   0  0  0  0  0  0  0  0  0  0  0  0
    0.1300    1.7371    1.1993 H   0  0  0  0  0  0  0  0  0  0  0  0
    2.8309    0.7278   -0.9647 H   0  0  0  0  0  0  0  0  0  0  0  0
    1.9971   -0.5411   -1.8834 H   0  0  0  0  0  0  0  0  0  0  0  0
   -0.3098   -1.9932   -0.7008 H   0  0  0  0  0  0  0  0  0  0  0  0
   -2.1287    1.9321   -0.6937 H   0  0  0  0  0  0  0  0  0  0  0  0
    1.1326   -0.6928    2.1614 H   0  0  0  0  0  0  0  0  0  0  0  0
    2.8707   -1.4570    0.4145 H   0  0  0  0  0  0  0  0  0  0  0  0
   -2.4878   -2.0210    0.7999 H   0  0  0  0  0  0  0  0  0  0  0  0
   -3.4477    0.4764    0.9875 H   0  0  0  0  0  0  0  0  0  0  0  0
  1  6  1  0
  1  5  1  0
  1  2  1  0
  1  3  1  0
  2  4  1  0
  2  3  1  0
  2 11  1  0
  3  7  1  0
  3 12  1  0
  4 14  1  0
  4  8  1  0
  4 13  1  0
  5 15  1  0
  5  9  2  0
  6 10  2  0
  6 16  1  0
  7 17  1  0
  7  8  2  0
  8 18  1  0
  9 10  1  0
  9 19  1  0
 10 20  1  0
M  END
