
     RDKit          3D

 20 21  0  0  0  0  0  0  0  0999 V2000
   -0.2462   -1.0438    0.2273 C   0  0  0  0  0  0  0  0  0  0  0  0
    3.0656    0.7297    0.0655 C   0  0  0  0  0  0  0  0  0  0  0  0
   -0.3926   -0.0786   -0.9064 C   0  0  0  0  0  0  0  0  0  0  0  0
    1.6878    0.1768   -0.1003 C   0  0  0  0  0  0  0  0  0  0  0  0
    1.1280   -0.7134    0.7105 C   0  0  0  0  0  0  0  0  0  0  0  0
   -1.3325   -0.8227    1.2506 C   0  0  0  0  0  0  0  0  0  0  0  0
    0.7308    0.5887   -1.1178 C   0  0  0  0  0  0  0  0  0  0  0  0
   -1.7190    0.3752   -1.3375 C   0  0  0  0  0  0  0  0  0  0  0  0
   -2.5152   -0.2929    0.8906 C   0  0  0  0  0  0  0  0  0  0  0  0
   -2.7360    0.2514   -0.4752 C   0  0  0  0  0  0  0  0  0  0  0  0
   -0.2800   -2.0912   -0.1414 H   0  0  0  0  0  0  0  0  0  0  0  0
    3.1555    1.2220    1.0565 H   0  0  0  0  0  0  0  0  0  0  0  0
    3.8090   -0.0918   -0.0049 H   0  0  0  0  0  0  0  0  0  0  0  0
    3.2794    1.4766   -0.7277 H   0  0  0  0  0  0  0  0  0  0  0  0
    1.6210   -1.1705    1.5591 H   0  0  0  0  0  0  0  0  0  0  0  0
   -1.2056   -1.2113    2.2535 H   0  0  0  0  0  0  0  0  0  0  0  0
    0.8399    1.4360   -1.7829 H   0  0  0  0  0  0  0  0  0  0  0  0
   -1.8573    0.8729   -2.2890 H   0  0  0  0  0  0  0  0  0  0  0  0
   -3.7165    0.6206   -0.7465 H   0  0  0  0  0  0  0  0  0  0  0  0
   -3.3163   -0.2335    1.6159 H   0  0  0  0  0  0  0  0  0  0  0  0
  1  5  1  0
  1  6  1  0
  1  3  1  0
  1 11  1  0
  2 13  1  0
  2  4  1  0
  2 14  1  0
  2 12  1  0
  3  7  2  0
  3  8  1  0
  4  7  1  0
  4  5  2  0
  5 15  1  0
  6 16  1  0
  6  9  2  0
  7 17  1  0
  8 18  1  0
  8 10  2  0
  9 20  1  0
  9 10  1  0
 10 19  1  0
M  END
