
     RDKit          3D

 19 20  0  0  0  0  0  0  0  0999 V2000
   -0.5493    0.5720   -1.7624 O   0  0  0  0  0  0  0  0  0  0  0  0
    0.7330    0.7687   -1.6904 O   0  0  0  0  0  0  0  0  0  0  0  0
   -1.2866   -0.8000    0.0264 C   0  0  0  0  0  0  0  0  0  0  0  0
   -0.0271   -1.4105    0.4906 C   0  0  0  0  0  0  0  0  0  0  0  0
   -1.2043    0.5760   -0.5521 C   0  0  0  0  0  0  0  0  0  0  0  0
    1.2539   -0.8661    0.0088 C   0  0  0  0  0  0  0  0  0  0  0  0
    1.2760    0.5542   -0.4369 C   0  0  0  0  0  0  0  0  0  0  0  0
   -0.6683    1.5718    0.4160 C   0  0  0  0  0  0  0  0  0  0  0  0
    0.6635    1.4985    0.5436 C   0  0  0  0  0  0  0  0  0  0  0  0
   -0.0568   -2.4945    0.2017 H   0  0  0  0  0  0  0  0  0  0  0  0
   -0.0197   -1.4327    1.6106 H   0  0  0  0  0  0  0  0  0  0  0  0
   -2.0186   -0.7203    0.8724 H   0  0  0  0  0  0  0  0  0  0  0  0
   -1.8209   -1.4351   -0.7247 H   0  0  0  0  0  0  0  0  0  0  0  0
   -2.2600    0.8919   -0.7507 H   0  0  0  0  0  0  0  0  0  0  0  0
    1.6647   -1.4689   -0.8409 H   0  0  0  0  0  0  0  0  0  0  0  0
    2.0296   -0.9722    0.8115 H   0  0  0  0  0  0  0  0  0  0  0  0
    2.3519    0.8596   -0.4999 H   0  0  0  0  0  0  0  0  0  0  0  0
   -1.2771    2.1918    1.0531 H   0  0  0  0  0  0  0  0  0  0  0  0
    1.2162    2.1160    1.2235 H   0  0  0  0  0  0  0  0  0  0  0  0
  1  5  1  0
  1  2  1  0
  2  7  1  0
  3 13  1  0
  3  5  1  0
  3  4  1  0
  3 12  1  0
  4 11  1  0
  4  6  1  0
  4 10  1  0
  5 14  1  0
  5  8  1  0
  6 16  1  0
  6  7  1  0
  6 15  1  0
  7  9  1  0
  7 17  1  0
  8  9  2  0
  8 18  1  0
  9 19  1  0
M  END
