
     RDKit          3D

 17 17  0  0  0  0  0  0  0  0999 V2000
   -1.7327    0.0137    0.5628 C   0  0  0  0  0  0  0  0  0  0  0  0
   -1.2936   -0.7221   -0.6983 C   0  0  0  0  0  0  0  0  0  0  0  0
    2.3658   -0.2024   -0.1216 C   0  0  0  0  0  0  0  0  0  0  0  0
    0.8999    0.0383   -0.1902 C   0  0  0  0  0  0  0  0  0  0  0  0
    0.1522   -1.0340   -0.4593 C   0  0  0  0  0  0  0  0  0  0  0  0
   -0.9946    1.3036    0.5951 C   0  0  0  0  0  0  0  0  0  0  0  0
    0.3165    1.2680    0.3645 C   0  0  0  0  0  0  0  0  0  0  0  0
   -1.4246   -0.6453    1.4143 H   0  0  0  0  0  0  0  0  0  0  0  0
   -2.8222    0.1368    0.5526 H   0  0  0  0  0  0  0  0  0  0  0  0
   -1.4407   -0.0321   -1.5423 H   0  0  0  0  0  0  0  0  0  0  0  0
   -1.8912   -1.6403   -0.8691 H   0  0  0  0  0  0  0  0  0  0  0  0
    2.8862    0.5402    0.5161 H   0  0  0  0  0  0  0  0  0  0  0  0
    2.7588   -0.1852   -1.1545 H   0  0  0  0  0  0  0  0  0  0  0  0
    2.5450   -1.2101    0.3193 H   0  0  0  0  0  0  0  0  0  0  0  0
   -1.5732    2.2082    0.4789 H   0  0  0  0  0  0  0  0  0  0  0  0
    0.3674   -2.0097   -0.0186 H   0  0  0  0  0  0  0  0  0  0  0  0
    0.8810    2.1722    0.2502 H   0  0  0  0  0  0  0  0  0  0  0  0
  1  2  1  0
  1  8  1  0
  1  9  1  0
  1  6  1  0
  2 11  1  0
  2  5  1  0
  2 10  1  0
  3  4  1  0
  3 12  1  0
  3 14  1  0
  3 13  1  0
  4  5  2  0
  4  7  1  0
  5 16  1  0
  6 15  1  0
  6  7  2  0
  7 17  1  0
M  END
