
     RDKit          3D

 19 19  0  0  0  0  0  0  0  0999 V2000
   -0.0048   -0.0533    0.4669 C   0  0  0  0  0  0  0  0  0  0  0  0
    1.2081    0.7241    0.0772 C   0  0  0  0  0  0  0  0  0  0  0  0
   -1.1516    0.9384    0.6267 C   0  0  0  0  0  0  0  0  0  0  0  0
   -0.5455   -0.9571   -0.5896 C   0  0  0  0  0  0  0  0  0  0  0  0
    2.4665   -0.0891   -0.0085 C   0  0  0  0  0  0  0  0  0  0  0  0
   -2.3352    0.0647    0.4802 C   0  0  0  0  0  0  0  0  0  0  0  0
   -2.0340   -0.7959   -0.5012 C   0  0  0  0  0  0  0  0  0  0  0  0
    0.0748   -0.5964    1.4155 H   0  0  0  0  0  0  0  0  0  0  0  0
    1.3729    1.5250    0.8314 H   0  0  0  0  0  0  0  0  0  0  0  0
    1.0076    1.2026   -0.9018 H   0  0  0  0  0  0  0  0  0  0  0  0
   -1.0420    1.3753    1.6264 H   0  0  0  0  0  0  0  0  0  0  0  0
   -1.0293    1.6591   -0.2029 H   0  0  0  0  0  0  0  0  0  0  0  0
   -0.1689   -0.7729   -1.6017 H   0  0  0  0  0  0  0  0  0  0  0  0
   -0.3233   -2.0110   -0.3305 H   0  0  0  0  0  0  0  0  0  0  0  0
    2.8886   -0.3302    0.9863 H   0  0  0  0  0  0  0  0  0  0  0  0
    2.3735   -1.0041   -0.6049 H   0  0  0  0  0  0  0  0  0  0  0  0
    3.2284    0.5644   -0.5048 H   0  0  0  0  0  0  0  0  0  0  0  0
   -3.1876   -0.0264    1.1583 H   0  0  0  0  0  0  0  0  0  0  0  0
   -2.7982   -1.4172   -0.9742 H   0  0  0  0  0  0  0  0  0  0  0  0
  1  3  1  0
  1  2  1  0
  1  8  1  0
  1  4  1  0
  2 10  1  0
  2  5  1  0
  2  9  1  0
  3 12  1  0
  3  6  1  0
  3 11  1  0
  4 14  1  0
  4 13  1  0
  4  7  1  0
  5 15  1  0
  5 16  1  0
  5 17  1  0
  6  7  2  0
  6 18  1  0
  7 19  1  0
M  END
