
     RDKit          3D

 19 19  0  0  0  0  0  0  0  0999 V2000
   -0.9500    0.0727   -0.5578 C   0  0  0  0  0  0  0  0  0  0  0  0
    0.3689   -0.1407    0.1174 C   0  0  0  0  0  0  0  0  0  0  0  0
   -2.1257   -0.4214    0.2016 C   0  0  0  0  0  0  0  0  0  0  0  0
   -1.9335    1.0636   -0.1126 C   0  0  0  0  0  0  0  0  0  0  0  0
    0.9209   -1.4614   -0.4101 C   0  0  0  0  0  0  0  0  0  0  0  0
    1.3471    0.9419   -0.1094 C   0  0  0  0  0  0  0  0  0  0  0  0
    2.3744    1.0488    0.7444 C   0  0  0  0  0  0  0  0  0  0  0  0
   -0.9502   -0.1578   -1.6413 H   0  0  0  0  0  0  0  0  0  0  0  0
    0.2308   -0.2621    1.2128 H   0  0  0  0  0  0  0  0  0  0  0  0
   -2.9987   -0.8762   -0.2873 H   0  0  0  0  0  0  0  0  0  0  0  0
   -1.9994   -0.7379    1.2646 H   0  0  0  0  0  0  0  0  0  0  0  0
   -1.6557    1.7413    0.7279 H   0  0  0  0  0  0  0  0  0  0  0  0
   -2.6366    1.5317   -0.8140 H   0  0  0  0  0  0  0  0  0  0  0  0
    2.0014   -1.4924   -0.1813 H   0  0  0  0  0  0  0  0  0  0  0  0
    0.7147   -1.5843   -1.4902 H   0  0  0  0  0  0  0  0  0  0  0  0
    0.3445   -2.2555    0.1263 H   0  0  0  0  0  0  0  0  0  0  0  0
    1.4999    1.4418   -1.0637 H   0  0  0  0  0  0  0  0  0  0  0  0
    3.3444    0.6188    0.4754 H   0  0  0  0  0  0  0  0  0  0  0  0
    2.1027    0.9292    1.7973 H   0  0  0  0  0  0  0  0  0  0  0  0
  1  2  1  0
  1  4  1  0
  1  3  1  0
  1  8  1  0
  2  6  1  0
  2  9  1  0
  2  5  1  0
  3  4  1  0
  3 11  1  0
  3 10  1  0
  4 13  1  0
  4 12  1  0
  5 16  1  0
  5 15  1  0
  5 14  1  0
  6  7  2  3
  6 17  1  0
  7 19  1  0
  7 18  1  0
M  END
