
     RDKit          3D

 17 18  0  0  0  0  0  0  0  0999 V2000
    1.6337    0.7757    0.5941 C   0  0  0  0  0  0  0  0  0  0  0  0
    0.2696    0.6274    0.0510 C   0  0  0  0  0  0  0  0  0  0  0  0
    0.0905   -0.7494   -0.0546 C   0  0  0  0  0  0  0  0  0  0  0  0
    2.3046   -0.3898   -0.0660 C   0  0  0  0  0  0  0  0  0  0  0  0
    1.4105   -1.3602   -0.2721 C   0  0  0  0  0  0  0  0  0  0  0  0
   -0.8217    1.4683   -0.1481 C   0  0  0  0  0  0  0  0  0  0  0  0
   -1.1839   -1.3030   -0.0758 C   0  0  0  0  0  0  0  0  0  0  0  0
   -2.2666   -0.4447    0.0672 C   0  0  0  0  0  0  0  0  0  0  0  0
   -2.0688    0.8792   -0.3109 C   0  0  0  0  0  0  0  0  0  0  0  0
    2.1333    1.7126    0.3339 H   0  0  0  0  0  0  0  0  0  0  0  0
    1.6300    0.5328    1.6737 H   0  0  0  0  0  0  0  0  0  0  0  0
    3.3146   -0.3526   -0.4552 H   0  0  0  0  0  0  0  0  0  0  0  0
   -1.3091   -2.3610    0.1101 H   0  0  0  0  0  0  0  0  0  0  0  0
    1.5219   -2.2361   -0.9149 H   0  0  0  0  0  0  0  0  0  0  0  0
   -3.1733   -0.7297    0.5941 H   0  0  0  0  0  0  0  0  0  0  0  0
   -2.9071    1.4852   -0.5916 H   0  0  0  0  0  0  0  0  0  0  0  0
   -0.5783    2.4452   -0.5349 H   0  0  0  0  0  0  0  0  0  0  0  0
  1 11  1  0
  1  2  1  0
  1  4  1  0
  1 10  1  0
  2  3  2  0
  2  6  1  0
  3  7  1  0
  3  5  1  0
  4 12  1  0
  4  5  2  0
  5 14  1  0
  6 17  1  0
  6  9  2  0
  7  8  2  0
  7 13  1  0
  8  9  1  0
  8 15  1  0
  9 16  1  0
M  END
