
     RDKit          3D

 17 18  0  0  0  0  0  0  0  0999 V2000
    1.7074    0.8925    0.2766 C   0  0  0  0  0  0  0  0  0  0  0  0
    0.2591    0.5808    0.1230 C   0  0  0  0  0  0  0  0  0  0  0  0
    0.0886   -0.7575   -0.1319 C   0  0  0  0  0  0  0  0  0  0  0  0
    2.3134   -0.4704    0.0692 C   0  0  0  0  0  0  0  0  0  0  0  0
    1.3866   -1.3976   -0.1615 C   0  0  0  0  0  0  0  0  0  0  0  0
   -0.8336    1.4446    0.2070 C   0  0  0  0  0  0  0  0  0  0  0  0
   -1.1766   -1.3133   -0.3177 C   0  0  0  0  0  0  0  0  0  0  0  0
   -2.2924   -0.4630   -0.2376 C   0  0  0  0  0  0  0  0  0  0  0  0
   -2.1215    0.9119    0.0240 C   0  0  0  0  0  0  0  0  0  0  0  0
    2.0486    1.6012   -0.5071 H   0  0  0  0  0  0  0  0  0  0  0  0
    1.9279    1.2732    1.2961 H   0  0  0  0  0  0  0  0  0  0  0  0
    3.3745   -0.6790    0.1023 H   0  0  0  0  0  0  0  0  0  0  0  0
   -1.2970   -2.3701   -0.5180 H   0  0  0  0  0  0  0  0  0  0  0  0
    1.5817   -2.4469   -0.3393 H   0  0  0  0  0  0  0  0  0  0  0  0
   -3.2872   -0.8655   -0.3774 H   0  0  0  0  0  0  0  0  0  0  0  0
   -2.9858    1.5604    0.0841 H   0  0  0  0  0  0  0  0  0  0  0  0
   -0.6936    2.4987    0.4082 H   0  0  0  0  0  0  0  0  0  0  0  0
  1 11  1  0
  1  2  1  0
  1  4  1  0
  1 10  1  0
  2  3  2  0
  2  6  1  0
  3  7  1  0
  3  5  1  0
  4 12  1  0
  4  5  2  0
  5 14  1  0
  6 17  1  0
  6  9  2  0
  7  8  2  0
  7 13  1  0
  8  9  1  0
  8 15  1  0
  9 16  1  0
M  END
