
     RDKit          3D

 17 17  0  0  0  0  0  0  0  0999 V2000
   -0.8342   -0.1978   -0.3457 C   0  0  0  0  0  0  0  0  0  0  0  0
   -0.2161    1.1016    0.0030 C   0  0  0  0  0  0  0  0  0  0  0  0
    1.4395   -1.2680   -0.1396 C   0  0  0  0  0  0  0  0  0  0  0  0
   -2.1305   -0.3218    0.4510 C   0  0  0  0  0  0  0  0  0  0  0  0
    1.2475    1.0856    0.1819 C   0  0  0  0  0  0  0  0  0  0  0  0
    1.8184   -0.0234    0.6029 C   0  0  0  0  0  0  0  0  0  0  0  0
   -0.0388   -1.4189   -0.0675 C   0  0  0  0  0  2  0  0  0  0  0  0
   -1.1559   -0.1730   -1.4169 H   0  0  0  0  0  0  0  0  0  0  0  0
   -0.6457    1.5292    0.9443 H   0  0  0  0  0  0  0  0  0  0  0  0
   -0.4320    1.8689   -0.7840 H   0  0  0  0  0  0  0  0  0  0  0  0
   -2.5128    0.6944    0.7241 H   0  0  0  0  0  0  0  0  0  0  0  0
   -2.9378   -0.7943   -0.1323 H   0  0  0  0  0  0  0  0  0  0  0  0
   -1.9531   -0.9033    1.3732 H   0  0  0  0  0  0  0  0  0  0  0  0
    1.8601   -1.2180   -1.1527 H   0  0  0  0  0  0  0  0  0  0  0  0
    1.9474   -2.0931    0.3949 H   0  0  0  0  0  0  0  0  0  0  0  0
    1.7409    2.0571    0.2485 H   0  0  0  0  0  0  0  0  0  0  0  0
    2.8032    0.0750    1.0633 H   0  0  0  0  0  0  0  0  0  0  0  0
  1  7  1  0
  1  4  1  0
  1  2  1  0
  1  8  1  0
  2  5  1  0
  2  9  1  0
  2 10  1  0
  3  7  1  0
  3 14  1  0
  3  6  1  0
  3 15  1  0
  4 12  1  0
  4 11  1  0
  4 13  1  0
  5  6  2  0
  5 16  1  0
  6 17  1  0
M  RAD  1   7   3
M  END
