
     RDKit          3D

 17 18  0  0  0  0  0  0  0  0999 V2000
   -0.9722    0.3685   -0.7202 C   0  0  0  0  0  0  0  0  0  0  0  0
   -2.0964   -0.5652   -0.7445 C   0  0  0  0  0  0  0  0  0  0  0  0
   -2.0263    0.3516    0.4018 C   0  0  0  0  0  0  0  0  0  0  0  0
    1.4435   -0.9700   -0.5475 C   0  0  0  0  0  0  0  0  0  0  0  0
    2.3077    0.2476   -0.3981 C   0  0  0  0  0  0  0  0  0  0  0  0
    0.3790    0.0051   -0.2452 C   0  0  0  0  0  0  0  0  0  0  0  0
    1.2290    0.6913    0.5307 C   0  0  0  0  0  0  0  0  0  0  0  0
   -0.9961    1.2299   -1.4284 H   0  0  0  0  0  0  0  0  0  0  0  0
   -2.9146   -0.3531   -1.4774 H   0  0  0  0  0  0  0  0  0  0  0  0
   -2.0016   -1.6556   -0.5371 H   0  0  0  0  0  0  0  0  0  0  0  0
   -1.7332   -0.0907    1.3743 H   0  0  0  0  0  0  0  0  0  0  0  0
   -2.6238    1.2769    0.4837 H   0  0  0  0  0  0  0  0  0  0  0  0
    1.4999   -1.3607   -1.5699 H   0  0  0  0  0  0  0  0  0  0  0  0
    1.6703   -1.7149    0.2263 H   0  0  0  0  0  0  0  0  0  0  0  0
    2.4001    0.8873   -1.2833 H   0  0  0  0  0  0  0  0  0  0  0  0
    3.2394    0.0817    0.1933 H   0  0  0  0  0  0  0  0  0  0  0  0
    1.1952    1.5703    1.1821 H   0  0  0  0  0  0  0  0  0  0  0  0
  1  2  1  0
  1  3  1  0
  1  6  1  0
  1  8  1  0
  2 10  1  0
  2  9  1  0
  2  3  1  0
  3 12  1  0
  3 11  1  0
  4  6  1  0
  4 13  1  0
  4  5  1  0
  4 14  1  0
  5 15  1  0
  5 16  1  0
  5  7  1  0
  6  7  2  0
  7 17  1  0
M  END
