
     RDKit          3D

 20 21  0  0  0  0  0  0  0  0999 V2000
    1.0956    1.0123    0.0053 C   0  0  0  0  0  0  0  0  0  0  0  0
    3.1226   -0.6518   -0.3917 C   0  0  0  0  0  0  0  0  0  0  0  0
    1.6625   -0.3555   -0.2781 C   0  0  0  0  0  0  0  0  0  0  0  0
   -0.3632    0.7107    0.0047 C   0  0  0  0  0  0  0  0  0  0  0  0
   -0.5716   -0.6247   -0.2421 C   0  0  0  0  0  0  0  0  0  0  0  0
    0.7091   -1.2769   -0.4167 C   0  0  0  0  0  0  0  0  0  0  0  0
   -1.4334    1.5817    0.2129 C   0  0  0  0  0  0  0  0  0  0  0  0
   -1.8544   -1.1686   -0.2958 C   0  0  0  0  0  0  0  0  0  0  0  0
   -2.9477   -0.3105   -0.0892 C   0  0  0  0  0  0  0  0  0  0  0  0
   -2.7379    1.0605    0.1644 C   0  0  0  0  0  0  0  0  0  0  0  0
    1.4254    1.3823    0.9991 H   0  0  0  0  0  0  0  0  0  0  0  0
    1.3549    1.7267   -0.8045 H   0  0  0  0  0  0  0  0  0  0  0  0
    3.3457   -1.0577   -1.4007 H   0  0  0  0  0  0  0  0  0  0  0  0
    3.4152   -1.3972    0.3773 H   0  0  0  0  0  0  0  0  0  0  0  0
    3.7152    0.2743   -0.2381 H   0  0  0  0  0  0  0  0  0  0  0  0
    0.8711   -2.3271   -0.6236 H   0  0  0  0  0  0  0  0  0  0  0  0
   -2.0050   -2.2224   -0.4911 H   0  0  0  0  0  0  0  0  0  0  0  0
   -3.9552   -0.7039   -0.1249 H   0  0  0  0  0  0  0  0  0  0  0  0
   -1.2637    2.6328    0.4069 H   0  0  0  0  0  0  0  0  0  0  0  0
   -3.5852    1.7150    0.3224 H   0  0  0  0  0  0  0  0  0  0  0  0
  1  3  1  0
  1  4  1  0
  1 11  1  0
  1 12  1  0
  2  3  1  0
  2 13  1  0
  2 14  1  0
  2 15  1  0
  3  6  2  0
  4  5  2  0
  4  7  1  0
  5  6  1  0
  5  8  1  0
  6 16  1  0
  7 10  2  0
  7 19  1  0
  8 17  1  0
  8  9  2  0
  9 18  1  0
  9 10  1  0
 10 20  1  0
M  END
