
     RDKit          3D

 20 21  0  0  0  0  0  0  0  0999 V2000
    1.0797    1.0333   -0.3665 C   0  0  0  0  0  0  0  0  0  0  0  0
    3.0945   -0.7136   -0.0292 C   0  0  0  0  0  0  0  0  0  0  0  0
    1.6895   -0.3049   -0.2383 C   0  0  0  0  0  0  0  0  0  0  0  0
   -0.3641    0.7921   -0.1367 C   0  0  0  0  0  0  0  0  0  0  0  0
   -0.5776   -0.5395   -0.4526 C   0  0  0  0  0  0  0  0  0  0  0  0
    0.7297   -1.1916   -0.5009 C   0  0  0  0  0  0  0  0  0  0  0  0
   -1.4917    1.5909    0.0030 C   0  0  0  0  0  0  0  0  0  0  0  0
   -1.8737   -1.0279   -0.5346 C   0  0  0  0  0  0  0  0  0  0  0  0
   -2.9352   -0.3113    0.0016 C   0  0  0  0  0  0  0  0  0  0  0  0
   -2.6551    0.9762    0.4426 C   0  0  0  0  0  0  0  0  0  0  0  0
    1.4307    1.7609    0.3825 H   0  0  0  0  0  0  0  0  0  0  0  0
    1.1779    1.4184   -1.4088 H   0  0  0  0  0  0  0  0  0  0  0  0
    3.6599   -0.8585   -0.9675 H   0  0  0  0  0  0  0  0  0  0  0  0
    3.1202   -1.6997    0.4900 H   0  0  0  0  0  0  0  0  0  0  0  0
    3.6670   -0.0125    0.5941 H   0  0  0  0  0  0  0  0  0  0  0  0
    0.8314   -2.2756   -0.5625 H   0  0  0  0  0  0  0  0  0  0  0  0
   -2.0487   -1.9695   -1.0559 H   0  0  0  0  0  0  0  0  0  0  0  0
   -3.7873   -0.8638    0.3985 H   0  0  0  0  0  0  0  0  0  0  0  0
   -1.3878    2.6653   -0.0243 H   0  0  0  0  0  0  0  0  0  0  0  0
   -3.3592    1.5312    1.0618 H   0  0  0  0  0  0  0  0  0  0  0  0
  1  3  1  0
  1  4  1  0
  1 11  1  0
  1 12  1  0
  2  3  1  0
  2 13  1  0
  2 14  1  0
  2 15  1  0
  3  6  2  0
  4  5  2  0
  4  7  1  0
  5  6  1  0
  5  8  1  0
  6 16  1  0
  7 10  2  0
  7 19  1  0
  8 17  1  0
  8  9  2  0
  9 18  1  0
  9 10  1  0
 10 20  1  0
M  END
