
     RDKit          3D

 17 17  0  0  0  0  0  0  0  0999 V2000
   -1.5044    0.6307   -0.1531 C   0  0  0  0  0  0  0  0  0  0  0  0
   -2.0476   -0.4989    0.7107 C   0  0  0  0  0  0  0  0  0  0  0  0
   -2.6790   -0.2037   -0.6386 C   0  0  0  0  0  0  0  0  0  0  0  0
    3.3970   -0.0970    0.1892 C   0  0  0  0  0  0  0  0  0  0  0  0
   -0.1936    0.3220   -0.8184 C   0  0  0  0  0  0  0  0  0  0  0  0
    0.9362    0.2449   -0.1078 C   0  0  0  0  0  0  0  0  0  0  0  0
    2.2374   -0.0459   -0.7943 C   0  0  0  0  0  2  0  0  0  0  0  0
   -1.7269    1.6549    0.2145 H   0  0  0  0  0  0  0  0  0  0  0  0
   -1.4501   -1.4362    0.7294 H   0  0  0  0  0  0  0  0  0  0  0  0
   -2.6606   -0.1662    1.5748 H   0  0  0  0  0  0  0  0  0  0  0  0
   -3.6627    0.3073   -0.5738 H   0  0  0  0  0  0  0  0  0  0  0  0
   -2.4513   -0.9631   -1.4178 H   0  0  0  0  0  0  0  0  0  0  0  0
    3.5049    0.8804    0.7055 H   0  0  0  0  0  0  0  0  0  0  0  0
    3.2291   -0.8997    0.9382 H   0  0  0  0  0  0  0  0  0  0  0  0
    4.3327   -0.3144   -0.3655 H   0  0  0  0  0  0  0  0  0  0  0  0
   -0.1689    0.1929   -1.8974 H   0  0  0  0  0  0  0  0  0  0  0  0
    0.9079    0.3920    0.9697 H   0  0  0  0  0  0  0  0  0  0  0  0
  1  5  1  0
  1  2  1  0
  1  8  1  0
  1  3  1  0
  2  9  1  0
  2 10  1  0
  2  3  1  0
  3 12  1  0
  3 11  1  0
  4 14  1  0
  4  7  1  0
  4 15  1  0
  4 13  1  0
  5  6  2  3
  5 16  1  0
  6 17  1  0
  6  7  1  0
M  RAD  1   7   3
M  END
