
     RDKit          3D

 19 19  0  0  0  0  0  0  0  0999 V2000
   -1.0871   -0.2684   -0.4505 C   0  0  0  0  0  0  0  0  0  0  0  0
    0.1905   -0.9380   -0.0136 C   0  0  0  0  0  0  0  0  0  0  0  0
   -0.8017    1.1998   -0.3834 C   0  0  0  0  0  0  0  0  0  0  0  0
   -2.2065   -0.7072    0.4590 C   0  0  0  0  0  0  0  0  0  0  0  0
    2.6629    0.0274   -0.0847 C   0  0  0  0  0  0  0  0  0  0  0  0
    1.1780    0.1872   -0.1021 C   0  0  0  0  0  0  0  0  0  0  0  0
    0.4966    1.2424    0.3614 C   0  0  0  0  0  0  0  0  0  0  0  0
   -1.3499   -0.5760   -1.4813 H   0  0  0  0  0  0  0  0  0  0  0  0
    0.1136   -1.1847    1.0609 H   0  0  0  0  0  0  0  0  0  0  0  0
    0.4599   -1.7920   -0.6486 H   0  0  0  0  0  0  0  0  0  0  0  0
   -1.5889    1.7984    0.0952 H   0  0  0  0  0  0  0  0  0  0  0  0
   -0.5798    1.5426   -1.4221 H   0  0  0  0  0  0  0  0  0  0  0  0
   -2.9490   -1.3331   -0.0982 H   0  0  0  0  0  0  0  0  0  0  0  0
   -2.6966    0.1762    0.9339 H   0  0  0  0  0  0  0  0  0  0  0  0
   -1.8409   -1.3716    1.2817 H   0  0  0  0  0  0  0  0  0  0  0  0
    3.1630    0.8663   -0.6268 H   0  0  0  0  0  0  0  0  0  0  0  0
    3.0610   -0.1145    0.9406 H   0  0  0  0  0  0  0  0  0  0  0  0
    2.8963   -0.8969   -0.6726 H   0  0  0  0  0  0  0  0  0  0  0  0
    0.8785    2.1421    0.8512 H   0  0  0  0  0  0  0  0  0  0  0  0
  1  4  1  0
  1  8  1  0
  1  2  1  0
  1  3  1  0
  2  9  1  0
  2  6  1  0
  2 10  1  0
  3 11  1  0
  3  7  1  0
  3 12  1  0
  4 15  1  0
  4 14  1  0
  4 13  1  0
  5 17  1  0
  5 18  1  0
  5 16  1  0
  5  6  1  0
  6  7  2  0
  7 19  1  0
M  END
