
     RDKit          3D

 17 17  0  0  0  0  0  0  0  0999 V2000
    1.2430   -0.3574   -0.1550 C   0  0  0  0  0  0  0  0  0  0  0  0
    0.0133    0.1170   -0.9145 C   0  0  0  0  0  0  0  0  0  0  0  0
    1.8830    0.7456    0.6433 C   0  0  0  0  0  0  0  0  0  0  0  0
   -2.4912    0.2538   -0.0371 C   0  0  0  0  0  0  0  0  0  0  0  0
   -1.1489   -0.3973   -0.1224 C   0  0  0  0  0  0  0  0  0  0  0  0
    0.6276   -1.3973    0.7299 C   0  0  0  0  0  0  0  0  0  0  0  0
   -0.5809   -0.9244    0.9387 C   0  0  0  0  0  0  0  0  0  0  0  0
    2.0102   -0.7867   -0.8238 H   0  0  0  0  0  0  0  0  0  0  0  0
    0.0499    1.2223   -0.9205 H   0  0  0  0  0  0  0  0  0  0  0  0
    0.0684   -0.3328   -1.9175 H   0  0  0  0  0  0  0  0  0  0  0  0
    1.5839    0.7159    1.7219 H   0  0  0  0  0  0  0  0  0  0  0  0
    1.5448    1.7076    0.1804 H   0  0  0  0  0  0  0  0  0  0  0  0
    2.9844    0.7040    0.6330 H   0  0  0  0  0  0  0  0  0  0  0  0
   -2.8163    0.4202    1.0045 H   0  0  0  0  0  0  0  0  0  0  0  0
   -3.2483   -0.4235   -0.4912 H   0  0  0  0  0  0  0  0  0  0  0  0
   -2.4793    1.1972   -0.6328 H   0  0  0  0  0  0  0  0  0  0  0  0
    0.7563   -2.4642    0.5340 H   0  0  0  0  0  0  0  0  0  0  0  0
  1  6  1  0
  1  2  1  0
  1  8  1  0
  1  3  1  0
  2  5  1  0
  2  9  1  0
  2 10  1  0
  3 12  1  0
  3 11  1  0
  3 13  1  0
  4  5  1  0
  4 14  1  0
  4 15  1  0
  4 16  1  0
  5  7  2  0
  6  7  2  0
  6 17  1  0
M  END
