
     RDKit          3D

 17 17  0  0  0  0  0  0  0  0999 V2000
   -0.6408    0.1165   -0.3386 C   0  0  0  0  0  0  0  0  0  0  0  0
    0.0164   -1.1979    0.0023 C   0  0  0  0  0  0  0  0  0  0  0  0
   -2.1044    0.0907    0.0122 C   0  0  0  0  0  0  0  0  0  0  0  0
    0.0406    1.2217    0.4047 C   0  0  0  0  0  0  0  0  0  0  0  0
    1.3099   -0.9991    0.7238 C   0  0  0  0  0  0  0  0  0  0  0  0
    1.3587    1.3051    0.2116 C   0  0  0  0  0  0  0  0  0  0  0  0
    2.0645    0.0187    0.3061 C   0  0  0  0  0  0  0  0  0  0  0  0
   -0.5020    0.3110   -1.4325 H   0  0  0  0  0  0  0  0  0  0  0  0
    0.2614   -1.7610   -0.9170 H   0  0  0  0  0  0  0  0  0  0  0  0
   -0.6669   -1.7809    0.6295 H   0  0  0  0  0  0  0  0  0  0  0  0
   -2.4006   -0.9754    0.1572 H   0  0  0  0  0  0  0  0  0  0  0  0
   -2.7295    0.5967   -0.7635 H   0  0  0  0  0  0  0  0  0  0  0  0
   -2.2680    0.6799    0.9478 H   0  0  0  0  0  0  0  0  0  0  0  0
   -0.5143    2.0241    0.8788 H   0  0  0  0  0  0  0  0  0  0  0  0
    1.7644   -1.8767    1.1403 H   0  0  0  0  0  0  0  0  0  0  0  0
    1.8743    2.2498    0.3094 H   0  0  0  0  0  0  0  0  0  0  0  0
    3.1365   -0.0234    0.2740 H   0  0  0  0  0  0  0  0  0  0  0  0
  1  4  1  0
  1  3  1  0
  1  2  1  0
  1  8  1  0
  2  9  1  0
  2  5  1  0
  2 10  1  0
  3 11  1  0
  3 12  1  0
  3 13  1  0
  4 14  1  0
  4  6  2  0
  5 15  1  0
  5  7  2  0
  6 16  1  0
  6  7  1  0
  7 17  1  0
M  END
