
     RDKit          3D

 19 19  0  0  0  0  0  0  0  0999 V2000
    1.1083   -0.0352    0.3254 C   0  0  0  0  0  0  0  0  0  0  0  0
    0.0213   -0.2113   -0.6712 C   0  0  0  0  0  0  0  0  0  0  0  0
    0.8371   -1.3821   -0.3159 C   0  0  0  0  0  0  0  0  0  0  0  0
    2.4370    0.5597   -0.0551 C   0  0  0  0  0  0  0  0  0  0  0  0
   -1.6706    1.3060    0.4478 C   0  0  0  0  0  0  0  0  0  0  0  0
   -1.3525   -0.0341   -0.0974 C   0  0  0  0  0  0  0  0  0  0  0  0
   -2.3425   -0.8590   -0.4626 C   0  0  0  0  0  0  0  0  0  0  0  0
    0.8637    0.0650    1.4004 H   0  0  0  0  0  0  0  0  0  0  0  0
    0.1089    0.1871   -1.6905 H   0  0  0  0  0  0  0  0  0  0  0  0
    0.5064   -2.1761    0.3686 H   0  0  0  0  0  0  0  0  0  0  0  0
    1.5471   -1.7522   -1.0984 H   0  0  0  0  0  0  0  0  0  0  0  0
    3.2029    0.0673    0.5960 H   0  0  0  0  0  0  0  0  0  0  0  0
    2.6853    0.2614   -1.0886 H   0  0  0  0  0  0  0  0  0  0  0  0
    2.5154    1.6390    0.1351 H   0  0  0  0  0  0  0  0  0  0  0  0
   -0.8832    2.0621    0.2381 H   0  0  0  0  0  0  0  0  0  0  0  0
   -2.6246    1.7108    0.0628 H   0  0  0  0  0  0  0  0  0  0  0  0
   -1.7572    1.2341    1.5479 H   0  0  0  0  0  0  0  0  0  0  0  0
   -2.6657   -0.9448   -1.5044 H   0  0  0  0  0  0  0  0  0  0  0  0
   -2.5372   -1.6977    0.2067 H   0  0  0  0  0  0  0  0  0  0  0  0
  1  2  1  0
  1  8  1  0
  1  3  1  0
  1  4  1  0
  2  6  1  0
  2  9  1  0
  2  3  1  0
  3 11  1  0
  3 10  1  0
  4 13  1  0
  4 14  1  0
  4 12  1  0
  5  6  1  0
  5 15  1  0
  5 17  1  0
  5 16  1  0
  6  7  2  3
  7 19  1  0
  7 18  1  0
M  END
