
     RDKit          3D

 19 19  0  0  0  0  0  0  0  0999 V2000
    1.2152    0.0594    0.1917 C   0  0  0  0  0  0  0  0  0  0  0  0
    0.0154   -0.0508   -0.7454 C   0  0  0  0  0  0  0  0  0  0  0  0
    0.9213   -1.2590   -0.5059 C   0  0  0  0  0  0  0  0  0  0  0  0
    2.4064    0.8356   -0.3681 C   0  0  0  0  0  0  0  0  0  0  0  0
   -1.7484    0.9627    0.8917 C   0  0  0  0  0  0  0  0  0  0  0  0
   -1.3275   -0.1230   -0.0603 C   0  0  0  0  0  0  0  0  0  0  0  0
   -2.1804   -1.1140   -0.3552 C   0  0  0  0  0  0  0  0  0  0  0  0
    1.0166    0.0624    1.2855 H   0  0  0  0  0  0  0  0  0  0  0  0
    0.0964    0.4026   -1.7566 H   0  0  0  0  0  0  0  0  0  0  0  0
    0.5195   -2.0422    0.1724 H   0  0  0  0  0  0  0  0  0  0  0  0
    1.5830   -1.5093   -1.3627 H   0  0  0  0  0  0  0  0  0  0  0  0
    3.3401    0.4545    0.0951 H   0  0  0  0  0  0  0  0  0  0  0  0
    2.4925    0.7435   -1.4727 H   0  0  0  0  0  0  0  0  0  0  0  0
    2.2933    1.9088   -0.1097 H   0  0  0  0  0  0  0  0  0  0  0  0
   -0.9614    1.7410    0.9800 H   0  0  0  0  0  0  0  0  0  0  0  0
   -2.6779    1.4476    0.5248 H   0  0  0  0  0  0  0  0  0  0  0  0
   -1.9342    0.5290    1.8969 H   0  0  0  0  0  0  0  0  0  0  0  0
   -1.9096   -1.8878   -1.0673 H   0  0  0  0  0  0  0  0  0  0  0  0
   -3.1603   -1.1611    0.1106 H   0  0  0  0  0  0  0  0  0  0  0  0
  1  2  1  0
  1  8  1  0
  1  3  1  0
  1  4  1  0
  2  6  1  0
  2  9  1  0
  2  3  1  0
  3 11  1  0
  3 10  1  0
  4 13  1  0
  4 14  1  0
  4 12  1  0
  5  6  1  0
  5 15  1  0
  5 17  1  0
  5 16  1  0
  6  7  2  3
  7 19  1  0
  7 18  1  0
M  END
