
     RDKit          3D

 19 20  0  0  0  0  0  0  0  0999 V2000
   -0.5886    0.2290   -1.6037 O   0  0  0  0  0  0  0  0  0  0  0  0
   -0.5401    1.4929   -1.2890 O   0  0  0  0  0  0  0  0  0  0  0  0
   -1.0543   -0.5920   -0.5999 C   0  0  0  0  0  0  0  0  0  0  0  0
    0.0758   -1.4306   -0.0701 C   0  0  0  0  0  0  0  0  0  0  0  0
    1.2179   -0.6312    0.4727 C   0  0  0  0  0  0  0  0  0  0  0  0
    1.4023    0.7128   -0.1513 C   0  0  0  0  0  0  0  0  0  0  0  0
    0.1885    1.5955   -0.1053 C   0  0  0  0  0  0  0  0  0  0  0  0
   -1.6519    0.1452    0.5668 C   0  0  0  0  0  0  0  0  0  0  0  0
   -0.6679    1.1749    1.0509 C   0  0  0  0  0  2  0  0  0  0  0  0
   -1.8136   -1.2636   -1.0257 H   0  0  0  0  0  0  0  0  0  0  0  0
    2.1467   -1.2097    0.2323 H   0  0  0  0  0  0  0  0  0  0  0  0
    1.1896   -0.5019    1.5758 H   0  0  0  0  0  0  0  0  0  0  0  0
    1.7852    0.6024   -1.1907 H   0  0  0  0  0  0  0  0  0  0  0  0
    2.1856    1.2396    0.4515 H   0  0  0  0  0  0  0  0  0  0  0  0
    0.3825   -2.1822   -0.8409 H   0  0  0  0  0  0  0  0  0  0  0  0
   -0.3439   -2.0087    0.7926 H   0  0  0  0  0  0  0  0  0  0  0  0
    0.4892    2.6717   -0.0390 H   0  0  0  0  0  0  0  0  0  0  0  0
   -2.6547    0.5526    0.3732 H   0  0  0  0  0  0  0  0  0  0  0  0
   -1.7483   -0.5968    1.3998 H   0  0  0  0  0  0  0  0  0  0  0  0
  1  2  1  0
  1  3  1  0
  2  7  1  0
  3  4  1  0
  3  8  1  0
  3 10  1  0
  4 16  1  0
  4 15  1  0
  4  5  1  0
  5 12  1  0
  5  6  1  0
  5 11  1  0
  6 13  1  0
  6 14  1  0
  6  7  1  0
  7  9  1  0
  7 17  1  0
  8 19  1  0
  8 18  1  0
  8  9  1  0
M  RAD  1   9   3
M  END
