
     RDKit          3D

 18 19  0  0  0  0  0  0  0  0999 V2000
    2.3338    0.6040   -0.2859 O   0  0  0  0  0  0  0  0  0  0  0  0
    1.3699   -0.2440    0.4921 C   0  0  0  0  0  0  0  0  0  0  0  0
    1.2885    1.1625    0.3912 C   0  0  0  0  0  0  0  0  0  0  0  0
    0.6640   -1.1402   -0.4438 C   0  0  0  0  0  0  0  0  0  0  0  0
   -0.8260   -1.1526   -0.3977 C   0  0  0  0  0  0  0  0  0  0  0  0
   -1.4436   -0.1852    0.5685 C   0  0  0  0  0  0  0  0  0  0  0  0
    0.0516    1.6150   -0.2706 C   0  0  0  0  0  0  0  0  0  0  0  0
   -1.1853    1.1874    0.0196 C   0  0  0  0  0  0  0  0  0  0  0  0
    1.9958   -0.6939    1.3059 H   0  0  0  0  0  0  0  0  0  0  0  0
    1.5826    1.7786    1.2598 H   0  0  0  0  0  0  0  0  0  0  0  0
   -1.2472   -2.1585   -0.1398 H   0  0  0  0  0  0  0  0  0  0  0  0
   -1.2874   -0.9181   -1.3922 H   0  0  0  0  0  0  0  0  0  0  0  0
    0.9945   -2.1875   -0.2125 H   0  0  0  0  0  0  0  0  0  0  0  0
    0.9476   -1.0255   -1.5222 H   0  0  0  0  0  0  0  0  0  0  0  0
   -2.5205   -0.4164    0.6253 H   0  0  0  0  0  0  0  0  0  0  0  0
   -0.9670   -0.2750    1.5557 H   0  0  0  0  0  0  0  0  0  0  0  0
    0.1584    2.5386   -0.8232 H   0  0  0  0  0  0  0  0  0  0  0  0
   -1.9099    1.5108   -0.7300 H   0  0  0  0  0  0  0  0  0  0  0  0
  1  3  1  0
  1  2  1  0
  2  9  1  0
  2  3  1  0
  2  4  1  0
  3 10  1  0
  3  7  1  0
  4  5  1  0
  4 13  1  0
  4 14  1  0
  5 11  1  0
  5 12  1  0
  5  6  1  0
  6 15  1  0
  6 16  1  0
  6  8  1  0
  7  8  2  0
  7 17  1  0
  8 18  1  0
M  END
