
     RDKit          3D

 21 22  0  0  0  0  0  0  0  0999 V2000
    1.2202   -0.4362   -0.3804 C   0  0  0  0  0  0  0  0  0  0  0  0
   -0.0183   -0.5746    0.4905 C   0  0  0  0  0  0  0  0  0  0  0  0
   -0.1878    0.9164    0.4357 C   0  0  0  0  0  0  0  0  0  0  0  0
    0.9660    1.0365   -0.5308 C   0  0  0  0  0  0  0  0  0  0  0  0
    2.5229   -0.7192    0.3540 C   0  0  0  0  0  0  0  0  0  0  0  0
   -1.4671    1.3365   -0.1809 C   0  0  0  0  0  0  0  0  0  0  0  0
   -1.1352   -1.3150   -0.1495 C   0  0  0  0  0  0  0  0  0  0  0  0
   -2.5796    0.6124   -0.0428 C   0  0  0  0  0  0  0  0  0  0  0  0
   -2.3823   -0.8409   -0.1256 C   0  0  0  0  0  0  0  0  0  0  0  0
    1.1192   -1.0424   -1.2895 H   0  0  0  0  0  0  0  0  0  0  0  0
   -0.0415    1.4433    1.4126 H   0  0  0  0  0  0  0  0  0  0  0  0
    0.1894   -0.8907    1.5404 H   0  0  0  0  0  0  0  0  0  0  0  0
    1.7616    1.7033   -0.1133 H   0  0  0  0  0  0  0  0  0  0  0  0
    0.6592    1.2816   -1.5703 H   0  0  0  0  0  0  0  0  0  0  0  0
    3.0318    0.2401    0.6120 H   0  0  0  0  0  0  0  0  0  0  0  0
    3.1957   -1.3326   -0.2954 H   0  0  0  0  0  0  0  0  0  0  0  0
    2.3173   -1.2532    1.3152 H   0  0  0  0  0  0  0  0  0  0  0  0
   -1.5763    2.3894   -0.4216 H   0  0  0  0  0  0  0  0  0  0  0  0
   -0.8565   -2.0994   -0.8562 H   0  0  0  0  0  0  0  0  0  0  0  0
   -3.5389    1.0288    0.1868 H   0  0  0  0  0  0  0  0  0  0  0  0
   -3.2000   -1.4840   -0.3910 H   0  0  0  0  0  0  0  0  0  0  0  0
  1 10  1  0
  1  2  1  0
  1  5  1  0
  1  4  1  0
  2  3  1  0
  2  7  1  0
  2 12  1  0
  3 11  1  0
  3  6  1  0
  3  4  1  0
  4 14  1  0
  4 13  1  0
  5 17  1  0
  5 16  1  0
  5 15  1  0
  6  8  2  0
  6 18  1  0
  7 19  1  0
  7  9  2  0
  8  9  1  0
  8 20  1  0
  9 21  1  0
M  END
