
     RDKit          3D

 21 22  0  0  0  0  0  0  0  0999 V2000
    1.1034   -0.4966   -0.3938 C   0  0  0  0  0  0  0  0  0  0  0  0
    0.0353   -0.4259    0.7042 C   0  0  0  0  0  0  0  0  0  0  0  0
   -0.1354    1.0787    0.4295 C   0  0  0  0  0  0  0  0  0  0  0  0
    0.9334    1.0018   -0.6613 C   0  0  0  0  0  0  0  0  0  0  0  0
    2.4929   -0.8690    0.1308 C   0  0  0  0  0  0  0  0  0  0  0  0
   -1.4816    1.5098   -0.0973 C   0  0  0  0  0  0  0  0  0  0  0  0
   -1.1632   -1.2926    0.4066 C   0  0  0  0  0  0  0  0  0  0  0  0
   -2.4839    0.6496   -0.2796 C   0  0  0  0  0  0  0  0  0  0  0  0
   -2.3204   -0.7873   -0.0223 C   0  0  0  0  0  0  0  0  0  0  0  0
    0.8066   -1.1126   -1.2730 H   0  0  0  0  0  0  0  0  0  0  0  0
    0.1881    1.6969    1.2958 H   0  0  0  0  0  0  0  0  0  0  0  0
    0.4274   -0.6126    1.7289 H   0  0  0  0  0  0  0  0  0  0  0  0
    1.8305    1.6108   -0.4120 H   0  0  0  0  0  0  0  0  0  0  0  0
    0.5461    1.1988   -1.6860 H   0  0  0  0  0  0  0  0  0  0  0  0
    2.7817   -0.2316    0.9946 H   0  0  0  0  0  0  0  0  0  0  0  0
    3.2427   -0.7395   -0.6777 H   0  0  0  0  0  0  0  0  0  0  0  0
    2.4956   -1.9318    0.4517 H   0  0  0  0  0  0  0  0  0  0  0  0
   -1.6348    2.5560   -0.3300 H   0  0  0  0  0  0  0  0  0  0  0  0
   -1.0764   -2.3617    0.5537 H   0  0  0  0  0  0  0  0  0  0  0  0
   -3.4343    1.0105   -0.6515 H   0  0  0  0  0  0  0  0  0  0  0  0
   -3.1539   -1.4517   -0.2114 H   0  0  0  0  0  0  0  0  0  0  0  0
  1 10  1  0
  1  2  1  0
  1  5  1  0
  1  4  1  0
  2  3  1  0
  2  7  1  0
  2 12  1  0
  3 11  1  0
  3  6  1  0
  3  4  1  0
  4 14  1  0
  4 13  1  0
  5 17  1  0
  5 16  1  0
  5 15  1  0
  6  8  2  0
  6 18  1  0
  7 19  1  0
  7  9  2  0
  8  9  1  0
  8 20  1  0
  9 21  1  0
M  END
