
     RDKit          3D

 21 22  0  0  0  0  0  0  0  0999 V2000
   -0.3942    1.0609   -1.5037 O   0  0  0  0  0  0  0  0  0  0  0  0
   -2.4013   -0.7190    0.8195 O   0  0  0  0  0  0  0  0  0  0  0  0
   -1.1141    0.9431   -0.3120 C   0  0  0  0  0  0  0  0  0  0  0  0
    0.7490    1.2806   -0.7670 C   0  0  0  0  0  0  0  0  0  0  0  0
   -1.3009   -0.4997    0.0060 C   0  0  0  0  0  0  0  0  0  0  0  0
   -0.0331    1.6318    0.4529 C   0  0  0  0  0  0  0  0  0  0  0  0
    1.6533    0.1107   -0.6319 C   0  0  0  0  0  0  0  0  0  0  0  0
   -0.1194   -1.1696    0.6361 C   0  0  0  0  0  0  0  0  0  0  0  0
    1.0197   -1.1910   -0.3282 C   0  0  0  0  0  0  0  0  0  0  0  0
    1.3285    2.1617   -1.1382 H   0  0  0  0  0  0  0  0  0  0  0  0
   -1.5092   -1.0475   -0.9483 H   0  0  0  0  0  0  0  0  0  0  0  0
   -2.0901    1.4855   -0.3164 H   0  0  0  0  0  0  0  0  0  0  0  0
    1.8083   -1.8564    0.1075 H   0  0  0  0  0  0  0  0  0  0  0  0
    0.6681   -1.7381   -1.2379 H   0  0  0  0  0  0  0  0  0  0  0  0
    2.1884   -0.0011   -1.6098 H   0  0  0  0  0  0  0  0  0  0  0  0
    2.4052    0.3415    0.1554 H   0  0  0  0  0  0  0  0  0  0  0  0
    0.1308   -0.8022    1.6420 H   0  0  0  0  0  0  0  0  0  0  0  0
   -0.4195   -2.2398    0.7887 H   0  0  0  0  0  0  0  0  0  0  0  0
    0.2808    1.2069    1.4107 H   0  0  0  0  0  0  0  0  0  0  0  0
   -0.2460    2.7296    0.4980 H   0  0  0  0  0  0  0  0  0  0  0  0
   -2.6044   -1.6880    0.7613 H   0  0  0  0  0  0  0  0  0  0  0  0
  1  4  1  0
  1  3  1  0
  2  5  1  0
  2 21  1  0
  3  5  1  0
  3  6  1  0
  3 12  1  0
  4  7  1  0
  4  6  1  0
  4 10  1  0
  5 11  1  0
  5  8  1  0
  6 20  1  0
  6 19  1  0
  7 15  1  0
  7  9  1  0
  7 16  1  0
  8 17  1  0
  8  9  1  0
  8 18  1  0
  9 13  1  0
  9 14  1  0
M  END
