
     RDKit          3D

 22 24  0  0  0  0  0  0  0  0999 V2000
    0.5061   -0.6849   -0.6752 C   0  0  0  0  0  0  0  0  0  0  0  0
   -0.5061    0.6849    0.6752 C   0  0  0  0  0  0  0  0  0  0  0  0
    0.4611    0.8335   -0.5093 C   0  0  0  0  0  0  0  0  0  0  0  0
   -0.4611   -0.8335    0.5093 C   0  0  0  0  0  0  0  0  0  0  0  0
    1.9564   -1.1079   -0.3888 C   0  0  0  0  0  0  0  0  0  0  0  0
   -1.9564    1.1079    0.3888 C   0  0  0  0  0  0  0  0  0  0  0  0
    1.8446    1.2119   -0.1026 C   0  0  0  0  0  0  0  0  0  0  0  0
   -1.8446   -1.2119    0.1026 C   0  0  0  0  0  0  0  0  0  0  0  0
    2.6501    0.1634   -0.0408 C   0  0  0  0  0  0  0  0  0  0  0  0
   -2.6501   -0.1634    0.0408 C   0  0  0  0  0  0  0  0  0  0  0  0
    0.1095   -1.0365   -1.6544 H   0  0  0  0  0  0  0  0  0  0  0  0
   -0.1095    1.0365    1.6544 H   0  0  0  0  0  0  0  0  0  0  0  0
    0.0782    1.3711   -1.4040 H   0  0  0  0  0  0  0  0  0  0  0  0
   -0.0782   -1.3711    1.4040 H   0  0  0  0  0  0  0  0  0  0  0  0
    2.4182   -1.5433   -1.3002 H   0  0  0  0  0  0  0  0  0  0  0  0
    2.0268   -1.8345    0.4484 H   0  0  0  0  0  0  0  0  0  0  0  0
   -2.4182    1.5433    1.3002 H   0  0  0  0  0  0  0  0  0  0  0  0
   -2.0268    1.8345   -0.4484 H   0  0  0  0  0  0  0  0  0  0  0  0
    2.1581    2.2247    0.1276 H   0  0  0  0  0  0  0  0  0  0  0  0
    3.6974    0.2294    0.2350 H   0  0  0  0  0  0  0  0  0  0  0  0
   -2.1581   -2.2247   -0.1276 H   0  0  0  0  0  0  0  0  0  0  0  0
   -3.6974   -0.2294   -0.2350 H   0  0  0  0  0  0  0  0  0  0  0  0
  1  4  1  0
  1  5  1  0
  1 11  1  0
  1  3  1  0
  2  4  1  0
  2  6  1  0
  2 12  1  0
  2  3  1  0
  3  7  1  0
  3 13  1  0
  4  8  1  0
  4 14  1  0
  5 16  1  0
  5 15  1  0
  5  9  1  0
  6 18  1  0
  6 17  1  0
  6 10  1  0
  7 19  1  0
  7  9  2  0
  8 21  1  0
  8 10  2  0
  9 20  1  0
 10 22  1  0
M  END
