
     RDKit          3D

 21 21  0  0  0  0  0  0  0  0999 V2000
    1.0241   -0.1459   -1.5595 O   0  0  0  0  0  0  0  0  0  0  0  0
    4.6991   -0.0427    0.6678 O   0  0  0  0  0  0  0  0  0  0  0  0
    0.1398   -0.6433   -0.5830 C   0  0  0  0  0  0  0  0  0  0  0  0
    1.1107    0.4345   -0.2758 C   0  0  0  0  0  0  0  0  0  0  0  0
   -1.3005   -0.2050   -0.8525 C   0  0  0  0  0  0  0  0  0  0  0  0
   -2.1154   -0.2434    0.4426 C   0  0  0  0  0  0  0  0  0  0  0  0
   -3.5639    0.1679    0.1958 C   0  0  0  0  0  0  0  0  0  0  0  0
    2.3555   -0.0010    0.4287 C   0  0  0  0  0  0  0  0  0  0  0  0
    3.5565    0.3631   -0.0119 C   0  0  0  0  0  0  0  0  0  0  0  0
    0.3772   -1.6922   -0.3028 H   0  0  0  0  0  0  0  0  0  0  0  0
   -1.3337    0.8201   -1.2858 H   0  0  0  0  0  0  0  0  0  0  0  0
   -1.7451   -0.9047   -1.5926 H   0  0  0  0  0  0  0  0  0  0  0  0
    0.8021    1.5015   -0.2880 H   0  0  0  0  0  0  0  0  0  0  0  0
   -2.0997   -1.2722    0.8647 H   0  0  0  0  0  0  0  0  0  0  0  0
   -1.6657    0.4495    1.1870 H   0  0  0  0  0  0  0  0  0  0  0  0
   -3.6085    1.2043   -0.2015 H   0  0  0  0  0  0  0  0  0  0  0  0
   -4.0435   -0.5242   -0.5289 H   0  0  0  0  0  0  0  0  0  0  0  0
   -4.1290    0.1293    1.1509 H   0  0  0  0  0  0  0  0  0  0  0  0
    2.2705   -0.6033    1.3251 H   0  0  0  0  0  0  0  0  0  0  0  0
    3.6537    0.9763   -0.9003 H   0  0  0  0  0  0  0  0  0  0  0  0
    5.6159    0.2315    0.3368 H   0  0  0  0  0  0  0  0  0  0  0  0
  1  3  1  0
  1  4  1  0
  2 21  1  0
  2  9  1  0
  3 10  1  0
  3  4  1  0
  3  5  1  0
  4  8  1  0
  4 13  1  0
  5 11  1  0
  5 12  1  0
  5  6  1  0
  6 14  1  0
  6  7  1  0
  6 15  1  0
  7 16  1  0
  7 18  1  0
  7 17  1  0
  8 19  1  0
  8  9  2  3
  9 20  1  0
M  END
