
     RDKit          3D

 16 16  0  0  0  0  0  0  0  0999 V2000
   -1.5528    0.5786    0.3195 C   0  0  0  0  0  0  0  0  0  0  0  0
   -0.1235    1.1261    0.2502 C   0  0  0  0  0  0  0  0  0  0  0  0
   -1.4588   -0.9169   -0.0039 C   0  0  0  0  0  0  0  0  0  0  0  0
    2.1936   -0.0117   -0.2836 C   0  0  0  0  0  0  0  0  0  0  0  0
    0.7071   -0.0565   -0.1024 C   0  0  0  0  0  0  0  0  0  0  0  0
   -0.0122   -1.1587   -0.2396 C   0  0  0  0  0  0  0  0  0  0  0  0
   -1.9765    0.7290    1.3366 H   0  0  0  0  0  0  0  0  0  0  0  0
   -2.2019    1.0950   -0.4213 H   0  0  0  0  0  0  0  0  0  0  0  0
   -0.0332    1.9053   -0.5371 H   0  0  0  0  0  0  0  0  0  0  0  0
    0.1938    1.5368    1.2331 H   0  0  0  0  0  0  0  0  0  0  0  0
   -2.0387   -1.1649   -0.9186 H   0  0  0  0  0  0  0  0  0  0  0  0
   -1.8119   -1.5332    0.8506 H   0  0  0  0  0  0  0  0  0  0  0  0
    2.5711    1.0192   -0.1174 H   0  0  0  0  0  0  0  0  0  0  0  0
    2.6812   -0.6937    0.4443 H   0  0  0  0  0  0  0  0  0  0  0  0
    2.4557   -0.3274   -1.3153 H   0  0  0  0  0  0  0  0  0  0  0  0
    0.4071   -2.1271   -0.4950 H   0  0  0  0  0  0  0  0  0  0  0  0
  1  8  1  0
  1  2  1  0
  1  7  1  0
  1  3  1  0
  2  5  1  0
  2  9  1  0
  2 10  1  0
  3 12  1  0
  3 11  1  0
  3  6  1  0
  4  5  1  0
  4 14  1  0
  4 13  1  0
  4 15  1  0
  5  6  2  0
  6 16  1  0
M  END
