
     RDKit          3D

 22 23  0  0  0  0  0  0  0  0999 V2000
   -1.1061    0.3752   -0.5830 C   0  0  0  0  0  0  0  0  0  0  0  0
   -0.4142   -0.3130    0.5897 C   0  0  0  0  0  0  0  0  0  0  0  0
   -1.5162   -1.0380   -0.1745 C   0  0  0  0  0  0  0  0  0  0  0  0
   -2.2904    1.2875   -0.2493 C   0  0  0  0  0  0  0  0  0  0  0  0
   -2.9006   -0.8796    0.3536 C   0  0  0  0  0  0  0  0  0  0  0  0
    0.9668   -0.7988    0.2764 C   0  0  0  0  0  0  0  0  0  0  0  0
   -3.3263    0.3722    0.3004 C   0  0  0  0  0  0  0  0  0  0  0  0
    1.9723    0.0609    0.1056 C   0  0  0  0  0  0  0  0  0  0  0  0
    3.3339   -0.4141   -0.1865 C   0  0  0  0  0  0  0  0  0  0  0  0
    4.3380    0.4402   -0.3598 C   0  0  0  0  0  0  0  0  0  0  0  0
   -0.6056    0.4198   -1.5752 H   0  0  0  0  0  0  0  0  0  0  0  0
   -0.6533    0.0775    1.6029 H   0  0  0  0  0  0  0  0  0  0  0  0
   -1.2906   -1.7719   -0.9782 H   0  0  0  0  0  0  0  0  0  0  0  0
   -2.6690    1.7785   -1.1702 H   0  0  0  0  0  0  0  0  0  0  0  0
   -2.0026    2.0512    0.5039 H   0  0  0  0  0  0  0  0  0  0  0  0
    1.1435   -1.8668    0.2199 H   0  0  0  0  0  0  0  0  0  0  0  0
   -3.5005   -1.6989    0.7351 H   0  0  0  0  0  0  0  0  0  0  0  0
   -4.3081    0.6888    0.6367 H   0  0  0  0  0  0  0  0  0  0  0  0
    1.7837    1.1265    0.1812 H   0  0  0  0  0  0  0  0  0  0  0  0
    3.5303   -1.4772   -0.2641 H   0  0  0  0  0  0  0  0  0  0  0  0
    4.1829    1.5100   -0.2907 H   0  0  0  0  0  0  0  0  0  0  0  0
    5.3321    0.0700   -0.5742 H   0  0  0  0  0  0  0  0  0  0  0  0
  1  3  1  0
  1  2  1  0
  1  4  1  0
  1 11  1  0
  2  6  1  0
  2  3  1  0
  2 12  1  0
  3 13  1  0
  3  5  1  0
  4 14  1  0
  4  7  1  0
  4 15  1  0
  5  7  2  0
  5 17  1  0
  6 16  1  0
  6  8  2  3
  7 18  1  0
  8  9  1  0
  8 19  1  0
  9 10  2  3
  9 20  1  0
 10 22  1  0
 10 21  1  0
M  END
