
     RDKit          3D

 14 15  0  0  0  0  0  0  0  0999 V2000
   -0.5375   -0.7149   -0.4863 C   0  0  0  0  0  0  0  0  0  0  0  0
   -0.6391    0.8068   -0.5198 C   0  0  0  0  0  0  0  0  0  0  0  0
   -1.5366    0.0014    0.4101 C   0  0  0  0  0  0  0  0  0  0  0  0
    0.8292   -1.0504    0.1189 C   0  0  0  0  0  0  0  0  0  0  0  0
    0.6604    1.2730    0.0426 C   0  0  0  0  0  0  0  0  0  0  0  0
    1.4606    0.2724    0.3742 C   0  0  0  0  0  0  0  0  0  0  0  0
   -0.9067   -1.2111   -1.4094 H   0  0  0  0  0  0  0  0  0  0  0  0
   -1.0058    1.1670   -1.5043 H   0  0  0  0  0  0  0  0  0  0  0  0
   -1.2687    0.0481    1.4881 H   0  0  0  0  0  0  0  0  0  0  0  0
   -2.5889   -0.0703    0.0647 H   0  0  0  0  0  0  0  0  0  0  0  0
    1.4398   -1.6274   -0.6069 H   0  0  0  0  0  0  0  0  0  0  0  0
    0.7156   -1.6200    1.0656 H   0  0  0  0  0  0  0  0  0  0  0  0
    0.9280    2.3172    0.1637 H   0  0  0  0  0  0  0  0  0  0  0  0
    2.4498    0.4081    0.7988 H   0  0  0  0  0  0  0  0  0  0  0  0
  1  3  1  0
  1  4  1  0
  1  2  1  0
  1  7  1  0
  2  5  1  0
  2  8  1  0
  2  3  1  0
  3 10  1  0
  3  9  1  0
  4 11  1  0
  4  6  1  0
  4 12  1  0
  5 13  1  0
  5  6  2  0
  6 14  1  0
M  END
