
     RDKit          3D

 21 21  0  0  0  0  0  0  0  0999 V2000
    0.1047    0.9604    1.0076 O   0  0  0  0  0  0  0  0  0  0  0  0
   -0.7271    1.7953    0.4373 O   0  0  0  0  0  0  0  0  0  0  0  0
    0.2594   -1.0675   -0.1313 C   0  0  0  0  0  0  0  0  0  0  0  0
   -1.2152   -1.1176   -0.4098 C   0  0  0  0  0  0  0  0  0  0  0  0
    0.8019    0.3335   -0.0368 C   0  0  0  0  0  0  0  0  0  0  0  0
   -2.0232   -0.2423    0.5062 C   0  0  0  0  0  0  0  0  0  0  0  0
   -1.9612    1.2167    0.1558 C   0  0  0  0  0  0  0  0  0  0  0  0
    2.2408    0.2642    0.3048 C   0  0  0  0  0  0  0  0  0  0  0  0
    3.2096    0.3801   -0.6126 C   0  0  0  0  0  0  0  0  0  0  0  0
   -1.4179   -0.9324   -1.4869 H   0  0  0  0  0  0  0  0  0  0  0  0
   -1.5443   -2.1703   -0.2159 H   0  0  0  0  0  0  0  0  0  0  0  0
    0.5611   -1.6292    0.7678 H   0  0  0  0  0  0  0  0  0  0  0  0
    0.7760   -1.5530   -0.9952 H   0  0  0  0  0  0  0  0  0  0  0  0
    0.6974    0.8666   -0.9966 H   0  0  0  0  0  0  0  0  0  0  0  0
   -1.6348   -0.3688    1.5263 H   0  0  0  0  0  0  0  0  0  0  0  0
   -3.0922   -0.5461    0.4316 H   0  0  0  0  0  0  0  0  0  0  0  0
   -2.2827    1.4442   -0.8738 H   0  0  0  0  0  0  0  0  0  0  0  0
   -2.6980    1.7333    0.8219 H   0  0  0  0  0  0  0  0  0  0  0  0
    2.5199   -0.1378    1.2699 H   0  0  0  0  0  0  0  0  0  0  0  0
    3.7249    1.3364   -0.6752 H   0  0  0  0  0  0  0  0  0  0  0  0
    3.7008   -0.5655   -0.8669 H   0  0  0  0  0  0  0  0  0  0  0  0
  1  2  1  0
  1  5  1  0
  2  7  1  0
  3  4  1  0
  3 12  1  0
  3 13  1  0
  3  5  1  0
  4  6  1  0
  4 11  1  0
  4 10  1  0
  5  8  1  0
  5 14  1  0
  6 15  1  0
  6 16  1  0
  6  7  1  0
  7 17  1  0
  7 18  1  0
  8 19  1  0
  8  9  2  3
  9 20  1  0
  9 21  1  0
M  END
