
     RDKit          3D

 19 19  0  0  0  0  0  0  0  0999 V2000
    0.4180   -0.2451   -0.2717 C   0  0  0  0  0  0  0  0  0  0  0  0
   -0.2181    1.1360   -0.1295 C   0  0  0  0  0  0  0  0  0  0  0  0
   -0.5749   -1.0509    0.5576 C   0  0  0  0  0  0  0  0  0  0  0  0
   -1.6162    0.8092   -0.6097 C   0  0  0  0  0  0  0  0  0  0  0  0
   -1.9197   -0.4119    0.2491 C   0  0  0  0  0  0  0  0  0  0  0  0
    1.7468   -0.2708    0.3836 C   0  0  0  0  0  0  0  0  0  0  0  0
    2.8563   -0.0926   -0.3374 C   0  0  0  0  0  0  0  0  0  0  0  0
    0.4410   -0.5778   -1.3201 H   0  0  0  0  0  0  0  0  0  0  0  0
   -1.5300    0.4804   -1.6612 H   0  0  0  0  0  0  0  0  0  0  0  0
   -2.3334    1.6259   -0.4635 H   0  0  0  0  0  0  0  0  0  0  0  0
   -0.2644    1.3370    0.9495 H   0  0  0  0  0  0  0  0  0  0  0  0
    0.2883    1.8998   -0.7277 H   0  0  0  0  0  0  0  0  0  0  0  0
   -2.5373   -1.1296   -0.3031 H   0  0  0  0  0  0  0  0  0  0  0  0
   -2.4006   -0.0104    1.1690 H   0  0  0  0  0  0  0  0  0  0  0  0
   -0.3228   -0.8297    1.6192 H   0  0  0  0  0  0  0  0  0  0  0  0
   -0.5501   -2.1244    0.3317 H   0  0  0  0  0  0  0  0  0  0  0  0
    1.7376   -0.2160    1.4758 H   0  0  0  0  0  0  0  0  0  0  0  0
    3.1663   -0.8711   -1.0397 H   0  0  0  0  0  0  0  0  0  0  0  0
    3.6131    0.5420    0.1281 H   0  0  0  0  0  0  0  0  0  0  0  0
  1  6  1  0
  1  2  1  0
  1  8  1  0
  1  3  1  0
  2  4  1  0
  2 11  1  0
  2 12  1  0
  3 16  1  0
  3  5  1  0
  3 15  1  0
  4 10  1  0
  4  9  1  0
  4  5  1  0
  5 14  1  0
  5 13  1  0
  6  7  2  3
  6 17  1  0
  7 18  1  0
  7 19  1  0
M  END
