
     RDKit          3D

 23 23  0  0  0  0  0  0  0  0999 V2000
    2.5047    0.2863   -0.8166 O   0  0  0  0  0  0  0  0  0  0  0  0
   -3.2096    0.7856    0.0915 O   0  0  0  0  0  0  0  0  0  0  0  0
    3.4918    0.0638    0.0737 O   0  0  0  0  0  0  0  0  0  0  0  0
    4.2264    1.1507    0.1939 O   0  0  0  0  0  0  0  0  0  0  0  0
   -1.9500    0.3665   -0.3355 C   0  0  0  0  0  0  0  0  0  0  0  0
   -1.6205   -0.9119    0.3773 C   0  0  0  0  0  0  0  0  0  0  0  0
   -0.4012   -1.6094   -0.1935 C   0  0  0  0  0  0  0  0  0  0  0  0
    0.8625   -1.0705    0.4210 C   0  0  0  0  0  0  0  0  0  0  0  0
   -0.9885    1.4837   -0.0510 C   0  0  0  0  0  0  0  0  0  0  0  0
    1.2074    0.1706   -0.3295 C   0  0  0  0  0  0  0  0  0  0  0  0
    0.3930    1.2060   -0.5061 C   0  0  0  0  0  0  0  0  0  0  0  0
   -1.9832    0.1918   -1.4177 H   0  0  0  0  0  0  0  0  0  0  0  0
   -0.4220   -1.5323   -1.2969 H   0  0  0  0  0  0  0  0  0  0  0  0
   -0.4680   -2.6853    0.1052 H   0  0  0  0  0  0  0  0  0  0  0  0
   -2.4806   -1.6052    0.1966 H   0  0  0  0  0  0  0  0  0  0  0  0
   -1.5374   -0.7991    1.4662 H   0  0  0  0  0  0  0  0  0  0  0  0
    0.6523   -0.8265    1.4804 H   0  0  0  0  0  0  0  0  0  0  0  0
    1.6901   -1.7921    0.3821 H   0  0  0  0  0  0  0  0  0  0  0  0
   -1.3458    2.3565   -0.6554 H   0  0  0  0  0  0  0  0  0  0  0  0
   -0.9875    1.8210    0.9949 H   0  0  0  0  0  0  0  0  0  0  0  0
    0.9605    2.1241   -0.6725 H   0  0  0  0  0  0  0  0  0  0  0  0
   -3.7734   -0.0274    0.1342 H   0  0  0  0  0  0  0  0  0  0  0  0
    5.1790    0.8530    0.1790 H   0  0  0  0  0  0  0  0  0  0  0  0
  1 10  1  0
  1  3  1  0
  2 22  1  0
  2  5  1  0
  3  4  1  0
  4 23  1  0
  5  6  1  0
  5 12  1  0
  5  9  1  0
  6 15  1  0
  6 16  1  0
  6  7  1  0
  7  8  1  0
  7 14  1  0
  7 13  1  0
  8 10  1  0
  8 17  1  0
  8 18  1  0
  9 19  1  0
  9 20  1  0
  9 11  1  0
 10 11  2  0
 11 21  1  0
M  END
