
     RDKit          3D

 23 23  0  0  0  0  0  0  0  0999 V2000
    2.4681    0.9647    0.1239 O   0  0  0  0  0  0  0  0  0  0  0  0
   -3.1590    0.2922   -1.0317 O   0  0  0  0  0  0  0  0  0  0  0  0
    3.4374    0.1497    0.5641 O   0  0  0  0  0  0  0  0  0  0  0  0
    4.5577    0.7322    0.1905 O   0  0  0  0  0  0  0  0  0  0  0  0
   -1.7832    0.1321   -0.7986 C   0  0  0  0  0  0  0  0  0  0  0  0
   -1.5609   -1.1608    0.0104 C   0  0  0  0  0  0  0  0  0  0  0  0
   -0.0815   -1.5370    0.1753 C   0  0  0  0  0  0  0  0  0  0  0  0
    0.6858   -0.5593    1.0762 C   0  0  0  0  0  0  0  0  0  0  0  0
   -1.2709    1.3755   -0.0502 C   0  0  0  0  0  0  0  0  0  0  0  0
    1.1129    0.6803    0.3216 C   0  0  0  0  0  0  0  0  0  0  0  0
    0.2185    1.5424   -0.1778 C   0  0  0  0  0  0  0  0  0  0  0  0
   -1.2541    0.0548   -1.7788 H   0  0  0  0  0  0  0  0  0  0  0  0
    0.4099   -1.6204   -0.8193 H   0  0  0  0  0  0  0  0  0  0  0  0
   -0.0403   -2.5443    0.6444 H   0  0  0  0  0  0  0  0  0  0  0  0
   -2.0624   -1.9980   -0.5226 H   0  0  0  0  0  0  0  0  0  0  0  0
   -2.0456   -1.0768    1.0081 H   0  0  0  0  0  0  0  0  0  0  0  0
    0.0752   -0.2750    1.9606 H   0  0  0  0  0  0  0  0  0  0  0  0
    1.5759   -1.0887    1.4739 H   0  0  0  0  0  0  0  0  0  0  0  0
   -1.7480    2.2775   -0.4921 H   0  0  0  0  0  0  0  0  0  0  0  0
   -1.5649    1.3463    1.0215 H   0  0  0  0  0  0  0  0  0  0  0  0
    0.5817    2.4180   -0.7033 H   0  0  0  0  0  0  0  0  0  0  0  0
   -3.4033   -0.3308   -1.7656 H   0  0  0  0  0  0  0  0  0  0  0  0
    4.8511    0.2253   -0.6093 H   0  0  0  0  0  0  0  0  0  0  0  0
  1 10  1  0
  1  3  1  0
  2 22  1  0
  2  5  1  0
  3  4  1  0
  4 23  1  0
  5  6  1  0
  5 12  1  0
  5  9  1  0
  6 15  1  0
  6 16  1  0
  6  7  1  0
  7  8  1  0
  7 14  1  0
  7 13  1  0
  8 10  1  0
  8 17  1  0
  8 18  1  0
  9 19  1  0
  9 20  1  0
  9 11  1  0
 10 11  2  0
 11 21  1  0
M  END
