
     RDKit          3D

 22 22  0  0  0  0  0  0  0  0999 V2000
    2.2404   -0.2125   -0.7803 O   0  0  0  0  0  0  0  0  0  0  0  0
    3.0926    0.6182   -0.2035 O   0  0  0  0  0  0  0  0  0  0  0  0
    3.9656   -0.1615    0.4022 O   0  0  0  0  0  0  0  0  0  0  0  0
    0.9909   -0.0220   -0.1531 C   0  0  0  0  0  0  0  0  0  0  0  0
    0.1858   -1.3252   -0.3069 C   0  0  0  0  0  0  0  0  0  0  0  0
   -1.1178   -1.3489    0.5054 C   0  0  0  0  0  0  0  0  0  0  0  0
    0.2705    1.1750   -0.8092 C   0  0  0  0  0  0  0  0  0  0  0  0
   -2.1748   -0.3765   -0.0341 C   0  0  0  0  0  0  0  0  0  0  0  0
   -1.9156    1.0364    0.4130 C   0  0  0  0  0  0  0  0  0  0  0  0
   -0.8212    1.7301    0.0669 C   0  0  0  0  0  0  0  0  0  0  0  0
    1.1278    0.1689    0.9398 H   0  0  0  0  0  0  0  0  0  0  0  0
    0.8191   -2.1665    0.0511 H   0  0  0  0  0  0  0  0  0  0  0  0
   -0.0310   -1.5198   -1.3805 H   0  0  0  0  0  0  0  0  0  0  0  0
   -0.9094   -1.1438    1.5789 H   0  0  0  0  0  0  0  0  0  0  0  0
   -1.5351   -2.3777    0.4453 H   0  0  0  0  0  0  0  0  0  0  0  0
   -3.1679   -0.6852    0.3580 H   0  0  0  0  0  0  0  0  0  0  0  0
   -2.2296   -0.4246   -1.1433 H   0  0  0  0  0  0  0  0  0  0  0  0
    1.0050    1.9906   -0.9836 H   0  0  0  0  0  0  0  0  0  0  0  0
   -0.1422    0.8947   -1.8028 H   0  0  0  0  0  0  0  0  0  0  0  0
   -2.6562    1.5189    1.0444 H   0  0  0  0  0  0  0  0  0  0  0  0
   -0.7186    2.7486    0.4305 H   0  0  0  0  0  0  0  0  0  0  0  0
    3.7219   -0.1172    1.3621 H   0  0  0  0  0  0  0  0  0  0  0  0
  1  2  1  0
  1  4  1  0
  2  3  1  0
  3 22  1  0
  4  7  1  0
  4 11  1  0
  4  5  1  0
  5  6  1  0
  5 12  1  0
  5 13  1  0
  6 14  1  0
  6 15  1  0
  6  8  1  0
  7 10  1  0
  7 18  1  0
  7 19  1  0
  8  9  1  0
  8 17  1  0
  8 16  1  0
  9 10  2  0
  9 20  1  0
 10 21  1  0
M  END
