
     RDKit          3D

 20 21  0  0  0  0  0  0  0  0999 V2000
   -1.0041   -1.2801   -0.2194 C   0  0  0  0  0  0  0  0  0  0  0  0
   -1.0825    1.2183   -0.0545 C   0  0  0  0  0  0  0  0  0  0  0  0
   -1.8728   -0.0555   -0.1591 C   0  0  0  0  0  0  0  0  0  0  0  0
    0.3520   -0.6793   -0.1457 C   0  0  0  0  0  0  0  0  0  0  0  0
    0.3087    0.6989   -0.0547 C   0  0  0  0  0  0  0  0  0  0  0  0
    1.5706   -1.3616   -0.1611 C   0  0  0  0  0  0  0  0  0  0  0  0
    1.4823    1.4520    0.0246 C   0  0  0  0  0  0  0  0  0  0  0  0
    2.7599   -0.6205   -0.0822 C   0  0  0  0  0  0  0  0  0  0  0  0
    2.7158    0.7827    0.0105 C   0  0  0  0  0  0  0  0  0  0  0  0
   -3.2077   -0.0950   -0.1949 C   0  0  0  0  0  0  0  0  0  0  0  0
   -1.1441   -1.8213   -1.1794 H   0  0  0  0  0  0  0  0  0  0  0  0
   -1.1894   -1.9436    0.6520 H   0  0  0  0  0  0  0  0  0  0  0  0
   -1.2600    1.8710   -0.9356 H   0  0  0  0  0  0  0  0  0  0  0  0
   -1.3053    1.7487    0.8958 H   0  0  0  0  0  0  0  0  0  0  0  0
    1.5990   -2.4412   -0.2325 H   0  0  0  0  0  0  0  0  0  0  0  0
    1.4429    2.5313    0.0958 H   0  0  0  0  0  0  0  0  0  0  0  0
    3.7143   -1.1305   -0.0926 H   0  0  0  0  0  0  0  0  0  0  0  0
    3.6365    1.3483    0.0711 H   0  0  0  0  0  0  0  0  0  0  0  0
   -3.7288   -1.0442   -0.2712 H   0  0  0  0  0  0  0  0  0  0  0  0
   -3.7874    0.8215   -0.1480 H   0  0  0  0  0  0  0  0  0  0  0  0
  1  4  1  0
  1 12  1  0
  1 11  1  0
  1  3  1  0
  2  5  1  0
  2 14  1  0
  2 13  1  0
  2  3  1  0
  3 10  2  3
  4  5  2  0
  4  6  1  0
  5  7  1  0
  6 15  1  0
  6  8  2  0
  7 16  1  0
  7  9  2  0
  8 17  1  0
  8  9  1  0
  9 18  1  0
 10 20  1  0
 10 19  1  0
M  END
