
     RDKit          3D

 20 21  0  0  0  0  0  0  0  0999 V2000
   -1.0115   -1.3123   -0.0749 C   0  0  0  0  0  0  0  0  0  0  0  0
   -1.0770    1.0829   -0.1546 C   0  0  0  0  0  0  0  0  0  0  0  0
   -1.9123   -0.1418   -0.0176 C   0  0  0  0  0  0  0  0  0  0  0  0
    0.3446   -0.7445    0.0097 C   0  0  0  0  0  0  0  0  0  0  0  0
    0.3207    0.6297   -0.1688 C   0  0  0  0  0  0  0  0  0  0  0  0
    1.6131   -1.2997    0.1352 C   0  0  0  0  0  0  0  0  0  0  0  0
    1.4619    1.4142   -0.0618 C   0  0  0  0  0  0  0  0  0  0  0  0
    2.7388   -0.5648   -0.2113 C   0  0  0  0  0  0  0  0  0  0  0  0
    2.6948    0.7817    0.0360 C   0  0  0  0  0  0  0  0  0  0  0  0
   -3.2397   -0.0828   -0.1581 C   0  0  0  0  0  0  0  0  0  0  0  0
   -1.1221   -1.8339   -1.0516 H   0  0  0  0  0  0  0  0  0  0  0  0
   -1.1459   -1.9898    0.7865 H   0  0  0  0  0  0  0  0  0  0  0  0
   -1.3713    1.6562   -1.0580 H   0  0  0  0  0  0  0  0  0  0  0  0
   -1.2284    1.6778    0.7642 H   0  0  0  0  0  0  0  0  0  0  0  0
    1.6985   -2.3871    0.1481 H   0  0  0  0  0  0  0  0  0  0  0  0
    1.4153    2.4569    0.2408 H   0  0  0  0  0  0  0  0  0  0  0  0
    3.6258   -1.0204   -0.6550 H   0  0  0  0  0  0  0  0  0  0  0  0
    3.6075    1.3687    0.1540 H   0  0  0  0  0  0  0  0  0  0  0  0
   -3.6268   -0.4569   -1.1079 H   0  0  0  0  0  0  0  0  0  0  0  0
   -3.7863    0.7659    0.2638 H   0  0  0  0  0  0  0  0  0  0  0  0
  1  4  1  0
  1 12  1  0
  1 11  1  0
  1  3  1  0
  2  5  1  0
  2 14  1  0
  2 13  1  0
  2  3  1  0
  3 10  2  3
  4  5  2  0
  4  6  1  0
  5  7  1  0
  6 15  1  0
  6  8  2  0
  7 16  1  0
  7  9  2  0
  8 17  1  0
  8  9  1  0
  9 18  1  0
 10 20  1  0
 10 19  1  0
M  END
