
     RDKit          3D

 15 16  0  0  0  0  0  0  0  0999 V2000
   -1.1292   -0.2814   -0.3605 C   0  0  0  0  0  0  0  0  0  0  0  0
   -1.8239    0.8844    0.0986 C   0  0  0  0  0  0  0  0  0  0  0  0
   -0.2127   -1.2483    0.4376 C   0  0  0  0  0  0  0  0  0  0  0  0
   -0.3372    1.0020   -0.1358 C   0  0  0  0  0  0  0  0  0  0  0  0
    1.2796   -1.0657    0.0627 C   0  0  0  0  0  0  0  0  0  0  0  0
    0.9155    1.3647   -0.2432 C   0  0  0  0  0  0  0  0  0  0  0  0
    1.7933    0.1641   -0.2364 C   0  0  0  0  0  0  0  0  0  0  0  0
   -1.1742   -0.4777   -1.4534 H   0  0  0  0  0  0  0  0  0  0  0  0
   -2.0897    0.8944    1.1759 H   0  0  0  0  0  0  0  0  0  0  0  0
   -2.4215    1.4279   -0.6628 H   0  0  0  0  0  0  0  0  0  0  0  0
   -0.3400   -1.0917    1.5317 H   0  0  0  0  0  0  0  0  0  0  0  0
   -0.5147   -2.2921    0.2110 H   0  0  0  0  0  0  0  0  0  0  0  0
    1.9343   -1.9277    0.0712 H   0  0  0  0  0  0  0  0  0  0  0  0
    1.2679    2.3719   -0.0681 H   0  0  0  0  0  0  0  0  0  0  0  0
    2.8524    0.2753   -0.4285 H   0  0  0  0  0  0  0  0  0  0  0  0
  1  2  1  0
  1  8  1  0
  1  4  1  0
  1  3  1  0
  2  4  1  0
  2  9  1  0
  2 10  1  0
  3 11  1  0
  3  5  1  0
  3 12  1  0
  4  6  2  0
  5 13  1  0
  5  7  2  0
  6  7  1  0
  6 14  1  0
  7 15  1  0
M  END
