
     RDKit          3D

 20 20  0  0  0  0  0  0  0  0999 V2000
   -2.9067   -0.2829   -0.3302 C   0  0  0  0  0  0  0  0  0  0  0  0
    2.1869   -0.1587   -0.8220 C   0  0  0  0  0  0  0  0  0  0  0  0
   -0.1399    0.1438   -0.0280 C   0  0  0  0  0  0  0  0  0  0  0  0
    1.0364    0.6200   -0.3370 C   0  0  0  0  0  0  0  0  0  0  0  0
   -2.3730    0.5262    0.7951 C   0  0  0  0  0  0  0  0  0  0  0  0
   -1.9309   -1.3651   -0.6599 C   0  0  0  0  0  0  0  0  0  0  0  0
   -1.1083    0.9418    0.7279 C   0  0  0  0  0  0  0  0  0  0  0  0
   -0.6249   -1.1485   -0.5308 C   0  0  0  0  0  0  0  0  0  0  0  0
    3.4541    0.3854   -0.2974 C   0  0  0  0  0  0  0  0  0  0  0  0
    4.3865    0.9427    0.2481 C   0  0  0  0  0  0  0  0  0  0  0  0
   -3.8939   -0.7170   -0.0723 H   0  0  0  0  0  0  0  0  0  0  0  0
   -2.9742    0.3573   -1.2452 H   0  0  0  0  0  0  0  0  0  0  0  0
    2.1202   -1.2311   -0.5049 H   0  0  0  0  0  0  0  0  0  0  0  0
    2.2875   -0.0823   -1.9336 H   0  0  0  0  0  0  0  0  0  0  0  0
    1.2595    1.6537   -0.0663 H   0  0  0  0  0  0  0  0  0  0  0  0
   -2.9687    0.7572    1.6740 H   0  0  0  0  0  0  0  0  0  0  0  0
   -2.2149   -2.2663   -1.2001 H   0  0  0  0  0  0  0  0  0  0  0  0
   -0.7447    1.7015    1.4232 H   0  0  0  0  0  0  0  0  0  0  0  0
    0.1167   -1.9445   -0.6140 H   0  0  0  0  0  0  0  0  0  0  0  0
    5.0324    1.1667    1.0627 H   0  0  0  0  0  0  0  0  0  0  0  0
  1  6  1  0
  1 11  1  0
  1  5  1  0
  1 12  1  0
  2 13  1  0
  2  9  1  0
  2  4  1  0
  2 14  1  0
  3  8  1  0
  3  7  1  0
  3  4  2  3
  4 15  1  0
  5 16  1  0
  5  7  2  0
  6 17  1  0
  6  8  2  0
  7 18  1  0
  8 19  1  0
  9 10  3  0
 10 20  1  0
M  END
