
     RDKit          3D

 20 20  0  0  0  0  0  0  0  0999 V2000
   -1.0493    0.7577   -0.2355 C   0  0  0  0  0  0  0  0  0  0  0  0
   -0.5977    1.8195    0.7255 C   0  0  0  0  0  0  0  0  0  0  0  0
    0.1082    0.0116   -0.8226 C   0  0  0  0  0  0  0  0  0  0  0  0
   -1.9282   -0.2021    0.4824 C   0  0  0  0  0  0  0  0  0  0  0  0
   -0.2448   -1.2621   -1.4659 C   0  0  0  0  0  0  0  0  0  0  0  0
   -2.0226   -1.4852    0.1497 C   0  0  0  0  0  0  0  0  0  0  0  0
   -1.3201   -1.9419   -1.0572 C   0  0  0  0  0  0  0  0  0  0  0  0
    3.7395    0.3645    0.4917 C   0  0  0  0  0  0  0  0  0  0  0  0
    1.3393    0.3026   -0.4741 C   0  0  0  0  0  0  0  0  0  0  0  0
    2.5391    0.4811   -0.0265 C   0  0  0  0  0  0  0  0  0  0  0  0
   -1.5850    1.2306   -1.0761 H   0  0  0  0  0  0  0  0  0  0  0  0
   -1.1923    2.7449    0.5738 H   0  0  0  0  0  0  0  0  0  0  0  0
    0.4461    2.0953    0.4930 H   0  0  0  0  0  0  0  0  0  0  0  0
   -0.7313    1.4930    1.7748 H   0  0  0  0  0  0  0  0  0  0  0  0
   -2.6107    0.2291    1.2163 H   0  0  0  0  0  0  0  0  0  0  0  0
    0.5150   -1.6814   -2.1045 H   0  0  0  0  0  0  0  0  0  0  0  0
   -1.3997   -3.0036   -1.2936 H   0  0  0  0  0  0  0  0  0  0  0  0
   -2.2795   -2.1558    0.9707 H   0  0  0  0  0  0  0  0  0  0  0  0
    4.4350   -0.3936    0.1303 H   0  0  0  0  0  0  0  0  0  0  0  0
    3.8388    0.5958    1.5477 H   0  0  0  0  0  0  0  0  0  0  0  0
  1  4  1  0
  1  3  1  0
  1 11  1  0
  1  2  1  0
  2 13  1  0
  2 12  1  0
  2 14  1  0
  3  5  1  0
  3  9  2  3
  4  6  2  0
  4 15  1  0
  5 16  1  0
  5  7  2  0
  6 18  1  0
  6  7  1  0
  7 17  1  0
  8 19  1  0
  8 20  1  0
  8 10  2  3
  9 10  2  3
M  END
