
     RDKit          3D

 20 20  0  0  0  0  0  0  0  0999 V2000
   -0.8235    0.7167    0.1142 C   0  0  0  0  0  0  0  0  0  0  0  0
   -0.6041    1.1730    1.5610 C   0  0  0  0  0  0  0  0  0  0  0  0
    0.2564   -0.2631   -0.3097 C   0  0  0  0  0  0  0  0  0  0  0  0
   -2.2179    0.1430   -0.0242 C   0  0  0  0  0  0  0  0  0  0  0  0
   -0.0808   -1.6589   -0.6419 C   0  0  0  0  0  0  0  0  0  0  0  0
   -2.4500   -1.1297   -0.3632 C   0  0  0  0  0  0  0  0  0  0  0  0
   -1.3507   -2.0620   -0.6592 C   0  0  0  0  0  0  0  0  0  0  0  0
    3.9523    0.9199   -0.6135 C   0  0  0  0  0  0  0  0  0  0  0  0
    1.4992    0.1332   -0.4131 C   0  0  0  0  0  0  0  0  0  0  0  0
    2.7160    0.5232   -0.5128 C   0  0  0  0  0  0  0  0  0  0  0  0
   -0.7670    1.6071   -0.5501 H   0  0  0  0  0  0  0  0  0  0  0  0
   -1.3882    1.9027    1.8573 H   0  0  0  0  0  0  0  0  0  0  0  0
    0.3827    1.6726    1.6647 H   0  0  0  0  0  0  0  0  0  0  0  0
   -0.6420    0.3037    2.2527 H   0  0  0  0  0  0  0  0  0  0  0  0
   -3.0637    0.7896    0.1764 H   0  0  0  0  0  0  0  0  0  0  0  0
    0.7037   -2.3660   -0.8868 H   0  0  0  0  0  0  0  0  0  0  0  0
   -1.5832   -3.0884   -0.9128 H   0  0  0  0  0  0  0  0  0  0  0  0
   -3.4703   -1.4856   -0.4287 H   0  0  0  0  0  0  0  0  0  0  0  0
    4.6529    0.3583   -1.2161 H   0  0  0  0  0  0  0  0  0  0  0  0
    4.2781    1.8107   -0.0942 H   0  0  0  0  0  0  0  0  0  0  0  0
  1  4  1  0
  1  3  1  0
  1 11  1  0
  1  2  1  0
  2 13  1  0
  2 12  1  0
  2 14  1  0
  3  5  1  0
  3  9  2  3
  4  6  2  0
  4 15  1  0
  5 16  1  0
  5  7  2  0
  6 18  1  0
  6  7  1  0
  7 17  1  0
  8 19  1  0
  8 20  1  0
  8 10  2  3
  9 10  2  3
M  END
