
     RDKit          3D

 15 15  0  0  0  0  0  0  0  0999 V2000
   -1.4812   -0.0466   -0.2886 C   0  0  0  0  0  0  0  0  0  0  0  0
   -0.1669    0.6513   -0.2554 C   0  0  0  0  0  0  0  0  0  0  0  0
    0.8535   -0.3841   -0.2762 C   0  0  0  0  0  0  0  0  0  0  0  0
   -1.1395   -1.4144    0.1989 C   0  0  0  0  0  0  0  0  0  0  0  0
    0.1564   -1.6339    0.0175 C   0  0  0  0  0  0  0  0  0  0  0  0
   -0.0150    1.9642   -0.0777 C   0  0  0  0  0  0  0  0  0  0  0  0
    2.1579   -0.1742   -0.0938 C   0  0  0  0  0  0  0  0  0  0  0  0
   -1.8776   -0.0641   -1.3324 H   0  0  0  0  0  0  0  0  0  0  0  0
   -2.2375    0.4505    0.3707 H   0  0  0  0  0  0  0  0  0  0  0  0
   -1.7672   -1.9332    0.9260 H   0  0  0  0  0  0  0  0  0  0  0  0
    0.6809   -2.5507    0.2908 H   0  0  0  0  0  0  0  0  0  0  0  0
    2.7086    0.4943   -0.7532 H   0  0  0  0  0  0  0  0  0  0  0  0
    2.5398   -0.2773    0.9234 H   0  0  0  0  0  0  0  0  0  0  0  0
   -0.7341    2.6294   -0.5585 H   0  0  0  0  0  0  0  0  0  0  0  0
    0.3220    2.2889    0.9086 H   0  0  0  0  0  0  0  0  0  0  0  0
  1  2  1  0
  1  8  1  0
  1  4  1  0
  1  9  1  0
  2  3  1  0
  2  6  2  3
  3  7  2  3
  3  5  1  0
  4 10  1  0
  4  5  2  0
  5 11  1  0
  6 15  1  0
  6 14  1  0
  7 13  1  0
  7 12  1  0
M  END
