
     RDKit          3D

 21 21  0  0  0  0  0  0  0  0999 V2000
   -2.7101   -0.7406    0.7585 O   0  0  0  0  0  0  0  0  0  0  0  0
    4.1700    0.2460    0.5291 O   0  0  0  0  0  0  0  0  0  0  0  0
    0.4665   -0.1938    0.1477 C   0  0  0  0  0  0  0  0  0  0  0  0
    1.8155    0.5311    0.2202 C   0  0  0  0  0  0  0  0  0  0  0  0
   -0.6747    0.7950   -0.1016 C   0  0  0  0  0  0  0  0  0  0  0  0
    2.9579   -0.4524    0.4696 C   0  0  0  0  0  0  0  0  0  0  0  0
   -3.6569   -0.8688   -0.2228 C   0  0  0  0  0  0  0  0  0  0  0  0
   -1.9803    0.0742   -0.1711 C   0  0  0  0  0  0  0  0  0  0  0  0
   -2.9375   -0.0610   -1.1456 C   0  0  0  0  0  0  0  0  0  0  0  0
    0.4927   -0.9400   -0.6775 H   0  0  0  0  0  0  0  0  0  0  0  0
    0.2852   -0.7313    1.1051 H   0  0  0  0  0  0  0  0  0  0  0  0
    2.0013    1.0678   -0.7361 H   0  0  0  0  0  0  0  0  0  0  0  0
    1.7928    1.2773    1.0448 H   0  0  0  0  0  0  0  0  0  0  0  0
   -0.7223    1.5364    0.7243 H   0  0  0  0  0  0  0  0  0  0  0  0
   -0.5049    1.3353   -1.0581 H   0  0  0  0  0  0  0  0  0  0  0  0
    2.7874   -0.9861    1.4317 H   0  0  0  0  0  0  0  0  0  0  0  0
    2.9966   -1.1966   -0.3576 H   0  0  0  0  0  0  0  0  0  0  0  0
   -4.6244   -0.4076    0.0759 H   0  0  0  0  0  0  0  0  0  0  0  0
   -3.7509   -1.9221   -0.5690 H   0  0  0  0  0  0  0  0  0  0  0  0
   -3.0766    0.2901   -2.1590 H   0  0  0  0  0  0  0  0  0  0  0  0
    4.8727   -0.4359    0.6915 H   0  0  0  0  0  0  0  0  0  0  0  0
  1  7  1  0
  1  8  1  0
  2  6  1  0
  2 21  1  0
  3 11  1  0
  3 10  1  0
  3  5  1  0
  3  4  1  0
  4  6  1  0
  4 12  1  0
  4 13  1  0
  5 14  1  0
  5 15  1  0
  5  8  1  0
  6 16  1  0
  6 17  1  0
  7 18  1  0
  7 19  1  0
  7  9  1  0
  8  9  2  0
  9 20  1  0
M  END
