
     RDKit          3D

 15 15  0  0  0  0  0  0  0  0999 V2000
   -2.0364   -0.3940   -0.0469 C   0  0  0  0  0  0  0  0  0  0  0  0
    0.2570   -0.1276    0.1015 C   0  0  0  0  0  0  0  0  0  0  0  0
   -0.7383   -0.9550    0.4281 C   0  0  0  0  0  0  0  0  0  0  0  0
   -1.5460    0.7806   -0.8343 C   0  0  0  0  0  0  0  0  0  0  0  0
   -0.4007    1.1368   -0.2535 C   0  0  0  0  0  0  0  0  0  0  0  0
    1.6476   -0.2785    0.5536 C   0  0  0  0  0  0  0  0  0  0  0  0
    2.6839   -0.0139   -0.2220 C   0  0  0  0  0  0  0  0  0  0  0  0
   -2.5052   -1.1614   -0.6762 H   0  0  0  0  0  0  0  0  0  0  0  0
   -2.7063   -0.0982    0.7716 H   0  0  0  0  0  0  0  0  0  0  0  0
   -0.7178   -1.8034    1.1142 H   0  0  0  0  0  0  0  0  0  0  0  0
   -2.2525    1.4419   -1.3282 H   0  0  0  0  0  0  0  0  0  0  0  0
    0.0050    2.1447   -0.1462 H   0  0  0  0  0  0  0  0  0  0  0  0
    1.8555   -0.9323    1.4031 H   0  0  0  0  0  0  0  0  0  0  0  0
    2.9574    0.9951   -0.5357 H   0  0  0  0  0  0  0  0  0  0  0  0
    3.4967   -0.7348   -0.3291 H   0  0  0  0  0  0  0  0  0  0  0  0
  1  4  1  0
  1  3  1  0
  1  9  1  0
  1  8  1  0
  2  3  2  0
  2  5  1  0
  2  6  1  0
  3 10  1  0
  4 11  1  0
  4  5  2  0
  5 12  1  0
  6 13  1  0
  6  7  2  3
  7 14  1  0
  7 15  1  0
M  END
