
     RDKit          3D

 19 19  0  0  0  0  0  0  0  0999 V2000
    2.2679    0.2813    1.0678 O   0  0  0  0  0  0  0  0  0  0  0  0
   -4.1226    1.0932   -0.5000 O   0  0  0  0  0  0  0  0  0  0  0  0
   -0.8860    0.2248    0.1662 C   0  0  0  0  0  0  0  0  0  0  0  0
    0.1485   -0.8629   -0.1320 C   0  0  0  0  0  0  0  0  0  0  0  0
   -2.3101   -0.3247    0.0465 C   0  0  0  0  0  0  0  0  0  0  0  0
    3.3047    0.4084    0.1819 C   0  0  0  0  0  0  0  0  0  0  0  0
    1.5309   -0.3118   -0.0118 C   0  0  0  0  0  0  0  0  0  0  0  0
    2.5781   -0.1799   -0.8893 C   0  0  0  0  0  0  0  0  0  0  0  0
   -3.3125    0.7491    0.3457 C   0  0  0  0  0  0  0  0  0  0  0  0
   -0.7256    0.6124    1.1973 H   0  0  0  0  0  0  0  0  0  0  0  0
   -0.7543    1.0648   -0.5522 H   0  0  0  0  0  0  0  0  0  0  0  0
    0.0001   -1.2542   -1.1619 H   0  0  0  0  0  0  0  0  0  0  0  0
    0.0370   -1.7012    0.5884 H   0  0  0  0  0  0  0  0  0  0  0  0
   -2.4556   -1.1559    0.7696 H   0  0  0  0  0  0  0  0  0  0  0  0
   -2.4739   -0.7196   -0.9807 H   0  0  0  0  0  0  0  0  0  0  0  0
    3.5514    1.4758   -0.0126 H   0  0  0  0  0  0  0  0  0  0  0  0
    4.1818   -0.2062    0.4838 H   0  0  0  0  0  0  0  0  0  0  0  0
    2.7624   -0.4174   -1.9282 H   0  0  0  0  0  0  0  0  0  0  0  0
   -3.3225    1.2239    1.3217 H   0  0  0  0  0  0  0  0  0  0  0  0
  1  7  1  0
  1  6  1  0
  2  9  2  0
  3  4  1  0
  3  5  1  0
  3 11  1  0
  3 10  1  0
  4  7  1  0
  4 12  1  0
  4 13  1  0
  5 15  1  0
  5 14  1  0
  5  9  1  0
  6  8  1  0
  6 17  1  0
  6 16  1  0
  7  8  2  0
  8 18  1  0
  9 19  1  0
M  END
