
     RDKit          3D

 21 22  0  0  0  0  0  0  0  0999 V2000
   -0.3843   -2.2834    0.3587 O   0  0  0  0  0  0  0  0  0  0  0  0
    2.6234   -0.9233    0.4595 O   0  0  0  0  0  0  0  0  0  0  0  0
    0.4793   -1.4960   -0.4317 C   0  0  0  0  0  0  0  0  0  0  0  0
   -0.9979   -1.3631   -0.5166 C   0  0  0  0  0  0  0  0  0  0  0  0
    1.2862   -0.4994    0.4189 C   0  0  0  0  0  0  0  0  0  0  0  0
    1.2335    0.9079   -0.2024 C   0  0  0  0  0  0  0  0  0  0  0  0
   -1.6931   -0.2253    0.2380 C   0  0  0  0  0  0  0  0  0  0  0  0
   -0.0143    1.7034    0.2134 C   0  0  0  0  0  0  0  0  0  0  0  0
   -1.3262    1.1421   -0.3537 C   0  0  0  0  0  0  0  0  0  0  0  0
    0.9765   -2.0891   -1.2283 H   0  0  0  0  0  0  0  0  0  0  0  0
    0.8974   -0.4540    1.4638 H   0  0  0  0  0  0  0  0  0  0  0  0
   -1.5046   -1.8657   -1.3671 H   0  0  0  0  0  0  0  0  0  0  0  0
    0.1023    2.7435   -0.1616 H   0  0  0  0  0  0  0  0  0  0  0  0
   -0.0746    1.7665    1.3222 H   0  0  0  0  0  0  0  0  0  0  0  0
    1.3016    0.8519   -1.3116 H   0  0  0  0  0  0  0  0  0  0  0  0
    2.1195    1.4825    0.1472 H   0  0  0  0  0  0  0  0  0  0  0  0
   -1.2756    1.0901   -1.4638 H   0  0  0  0  0  0  0  0  0  0  0  0
   -2.1375    1.8581   -0.0978 H   0  0  0  0  0  0  0  0  0  0  0  0
   -1.4788   -0.2560    1.3291 H   0  0  0  0  0  0  0  0  0  0  0  0
   -2.7882   -0.3753    0.1262 H   0  0  0  0  0  0  0  0  0  0  0  0
    2.6553   -1.7156    1.0577 H   0  0  0  0  0  0  0  0  0  0  0  0
  1  3  1  0
  1  4  1  0
  2  5  1  0
  2 21  1  0
  3  5  1  0
  3 10  1  0
  3  4  1  0
  4  7  1  0
  4 12  1  0
  5 11  1  0
  5  6  1  0
  6  8  1  0
  6 16  1  0
  6 15  1  0
  7  9  1  0
  7 20  1  0
  7 19  1  0
  8 14  1  0
  8  9  1  0
  8 13  1  0
  9 18  1  0
  9 17  1  0
M  END
