
     RDKit          3D

 21 22  0  0  0  0  0  0  0  0999 V2000
   -0.4943   -2.2208    0.5712 O   0  0  0  0  0  0  0  0  0  0  0  0
    2.6625   -0.7474    0.3015 O   0  0  0  0  0  0  0  0  0  0  0  0
    0.4280   -1.5229   -0.1881 C   0  0  0  0  0  0  0  0  0  0  0  0
   -0.8889   -1.2818   -0.5274 C   0  0  0  0  0  0  0  0  0  0  0  0
    1.2918   -0.4638    0.4303 C   0  0  0  0  0  0  0  0  0  0  0  0
    1.1082    0.8429   -0.3288 C   0  0  0  0  0  0  0  0  0  0  0  0
   -1.7037   -0.1867    0.0354 C   0  0  0  0  0  0  0  0  0  0  0  0
    0.0035    1.5889    0.3990 C   0  0  0  0  0  0  0  0  0  0  0  0
   -1.2652    1.2057   -0.3517 C   0  0  0  0  0  0  0  0  0  0  0  0
    1.0282   -2.2044   -0.8477 H   0  0  0  0  0  0  0  0  0  0  0  0
    1.1189   -0.3309    1.5247 H   0  0  0  0  0  0  0  0  0  0  0  0
   -1.3685   -1.8449   -1.3682 H   0  0  0  0  0  0  0  0  0  0  0  0
    0.1771    2.6753    0.3456 H   0  0  0  0  0  0  0  0  0  0  0  0
   -0.1337    1.2208    1.4446 H   0  0  0  0  0  0  0  0  0  0  0  0
    0.8276    0.5720   -1.3659 H   0  0  0  0  0  0  0  0  0  0  0  0
    2.0026    1.4750   -0.3240 H   0  0  0  0  0  0  0  0  0  0  0  0
   -1.0984    1.3215   -1.4338 H   0  0  0  0  0  0  0  0  0  0  0  0
   -2.0556    1.8903    0.0474 H   0  0  0  0  0  0  0  0  0  0  0  0
   -1.7916   -0.1821    1.1508 H   0  0  0  0  0  0  0  0  0  0  0  0
   -2.7633   -0.2529   -0.3241 H   0  0  0  0  0  0  0  0  0  0  0  0
    2.9148   -1.5537    0.8093 H   0  0  0  0  0  0  0  0  0  0  0  0
  1  3  1  0
  1  4  1  0
  2  5  1  0
  2 21  1  0
  3  5  1  0
  3 10  1  0
  3  4  1  0
  4  7  1  0
  4 12  1  0
  5 11  1  0
  5  6  1  0
  6  8  1  0
  6 16  1  0
  6 15  1  0
  7  9  1  0
  7 20  1  0
  7 19  1  0
  8 14  1  0
  8  9  1  0
  8 13  1  0
  9 18  1  0
  9 17  1  0
M  END
