
     RDKit          3D

 23 23  0  0  0  0  0  0  0  0999 V2000
    1.7312    0.7803    1.2109 O   0  0  0  0  0  0  0  0  0  0  0  0
    2.7816    0.0591    0.8421 O   0  0  0  0  0  0  0  0  0  0  0  0
    3.8297    0.8229    0.7086 O   0  0  0  0  0  0  0  0  0  0  0  0
    4.6582    0.2324   -0.1397 O   0  0  0  0  0  0  0  0  0  0  0  0
   -0.6360    0.9788    0.7535 C   0  0  0  0  0  0  0  0  0  0  0  0
    0.7096    0.4435    0.3191 C   0  0  0  0  0  0  0  0  0  0  0  0
   -1.3917    1.1452   -0.5461 C   0  0  0  0  0  0  0  0  0  0  0  0
   -2.3295    0.0072   -0.7490 C   0  0  0  0  0  0  0  0  0  0  0  0
   -1.7746   -1.3429   -0.8518 C   0  0  0  0  0  0  0  0  0  0  0  0
    0.5798   -1.0153    0.1705 C   0  0  0  0  0  0  0  0  0  0  0  0
   -0.4871   -1.6585   -0.2569 C   0  0  0  0  0  0  0  0  0  0  0  0
   -0.7335    1.3424   -1.4074 H   0  0  0  0  0  0  0  0  0  0  0  0
   -2.0207    2.0623   -0.4117 H   0  0  0  0  0  0  0  0  0  0  0  0
   -0.5809    1.8910    1.3572 H   0  0  0  0  0  0  0  0  0  0  0  0
   -1.1437    0.1845    1.3547 H   0  0  0  0  0  0  0  0  0  0  0  0
    1.0167    0.8441   -0.6747 H   0  0  0  0  0  0  0  0  0  0  0  0
   -2.8799    0.2370   -1.6996 H   0  0  0  0  0  0  0  0  0  0  0  0
   -3.1243    0.1029    0.0360 H   0  0  0  0  0  0  0  0  0  0  0  0
   -1.7403   -1.6822   -1.9200 H   0  0  0  0  0  0  0  0  0  0  0  0
   -2.5203   -2.0413   -0.3841 H   0  0  0  0  0  0  0  0  0  0  0  0
    1.2773   -1.5878    0.7917 H   0  0  0  0  0  0  0  0  0  0  0  0
   -0.3117   -2.7421   -0.2433 H   0  0  0  0  0  0  0  0  0  0  0  0
    5.0902    0.9365   -0.6688 H   0  0  0  0  0  0  0  0  0  0  0  0
  1  6  1  0
  1  2  1  0
  2  3  1  0
  3  4  1  0
  4 23  1  0
  5  7  1  0
  5 14  1  0
  5 15  1  0
  5  6  1  0
  6 16  1  0
  6 10  1  0
  7  8  1  0
  7 12  1  0
  7 13  1  0
  8 18  1  0
  8 17  1  0
  8  9  1  0
  9 20  1  0
  9 19  1  0
  9 11  1  0
 10 21  1  0
 10 11  2  0
 11 22  1  0
M  END
