
     RDKit          3D

 19 19  0  0  0  0  0  0  0  0999 V2000
   -1.7864    0.5012   -0.3314 C   0  0  0  0  0  0  0  0  0  0  0  0
    2.5813   -0.1662    0.7693 C   0  0  0  0  0  0  0  0  0  0  0  0
    3.1766    0.3039   -0.4404 C   0  0  0  0  0  0  0  0  0  0  0  0
   -0.7167   -0.5939   -0.3489 C   0  0  0  0  0  0  0  0  0  0  0  0
   -3.0433    0.0328    0.3960 C   0  0  0  0  0  0  0  0  0  0  0  0
    1.6841   -0.0247   -0.4605 C   0  0  0  0  0  0  0  0  0  0  0  0
    0.5068   -0.1161   -1.0768 C   0  0  0  0  0  0  0  0  0  0  0  0
   -1.3882    1.4039    0.1821 H   0  0  0  0  0  0  0  0  0  0  0  0
   -2.0568    0.7792   -1.3738 H   0  0  0  0  0  0  0  0  0  0  0  0
    2.3547    0.6002    1.5397 H   0  0  0  0  0  0  0  0  0  0  0  0
    2.7648   -1.2295    1.0303 H   0  0  0  0  0  0  0  0  0  0  0  0
    3.3647    1.3961   -0.5059 H   0  0  0  0  0  0  0  0  0  0  0  0
    3.7745   -0.4338   -1.0155 H   0  0  0  0  0  0  0  0  0  0  0  0
   -1.1082   -1.4929   -0.8718 H   0  0  0  0  0  0  0  0  0  0  0  0
   -0.4634   -0.8829    0.6961 H   0  0  0  0  0  0  0  0  0  0  0  0
   -3.8000    0.8454    0.3914 H   0  0  0  0  0  0  0  0  0  0  0  0
   -3.4740   -0.8566   -0.1116 H   0  0  0  0  0  0  0  0  0  0  0  0
   -2.8058   -0.2252    1.4501 H   0  0  0  0  0  0  0  0  0  0  0  0
    0.4354    0.1592   -2.1241 H   0  0  0  0  0  0  0  0  0  0  0  0
  1  9  1  0
  1  4  1  0
  1  8  1  0
  1  5  1  0
  2 11  1  0
  2  3  1  0
  2 10  1  0
  2  6  1  0
  3 12  1  0
  3 13  1  0
  3  6  1  0
  4  7  1  0
  4 14  1  0
  4 15  1  0
  5 18  1  0
  5 16  1  0
  5 17  1  0
  6  7  2  3
  7 19  1  0
M  END
