
     RDKit          3D

 20 21  0  0  0  0  0  0  0  0999 V2000
   -0.1085    2.0273    0.1946 C   0  0  0  0  0  0  0  0  0  0  0  0
    2.6945   -0.5358    0.0503 C   0  0  0  0  0  0  0  0  0  0  0  0
   -0.8206    0.7265    0.0399 C   0  0  0  0  0  0  0  0  0  0  0  0
    1.4196    0.2459    0.0783 C   0  0  0  0  0  0  0  0  0  0  0  0
    0.0828   -0.3065   -0.0269 C   0  0  0  0  0  0  0  0  0  0  0  0
    1.3260    1.5697    0.2045 C   0  0  0  0  0  0  0  0  0  0  0  0
   -2.1939    0.4904   -0.0356 C   0  0  0  0  0  0  0  0  0  0  0  0
   -0.3298   -1.6320   -0.1726 C   0  0  0  0  0  0  0  0  0  0  0  0
   -2.6373   -0.8351   -0.1825 C   0  0  0  0  0  0  0  0  0  0  0  0
   -1.7081   -1.8930   -0.2507 C   0  0  0  0  0  0  0  0  0  0  0  0
   -0.3049    2.6948   -0.6707 H   0  0  0  0  0  0  0  0  0  0  0  0
   -0.3746    2.5157    1.1556 H   0  0  0  0  0  0  0  0  0  0  0  0
    2.7697   -1.0866   -0.9103 H   0  0  0  0  0  0  0  0  0  0  0  0
    3.5743    0.1350    0.1496 H   0  0  0  0  0  0  0  0  0  0  0  0
    2.7011   -1.2630    0.8887 H   0  0  0  0  0  0  0  0  0  0  0  0
    2.1761    2.2327    0.3019 H   0  0  0  0  0  0  0  0  0  0  0  0
   -2.9009    1.3080    0.0176 H   0  0  0  0  0  0  0  0  0  0  0  0
   -3.6973   -1.0444   -0.2434 H   0  0  0  0  0  0  0  0  0  0  0  0
   -2.0577   -2.9109   -0.3639 H   0  0  0  0  0  0  0  0  0  0  0  0
    0.3898   -2.4387   -0.2242 H   0  0  0  0  0  0  0  0  0  0  0  0
  1  3  1  0
  1 12  1  0
  1  6  1  0
  1 11  1  0
  2 15  1  0
  2  4  1  0
  2 13  1  0
  2 14  1  0
  3  7  2  0
  3  5  1  0
  4  5  1  0
  4  6  2  0
  5  8  2  0
  6 16  1  0
  7  9  1  0
  7 17  1  0
  8 20  1  0
  8 10  1  0
  9 10  2  0
  9 18  1  0
 10 19  1  0
M  END
