
     RDKit          3D

 23 24  0  0  0  0  0  0  0  0999 V2000
   -1.6026   -0.6360   -0.5627 O   0  0  0  0  0  0  0  0  0  0  0  0
    1.9886   -1.0623   -0.2805 O   0  0  0  0  0  0  0  0  0  0  0  0
    2.9380   -0.5746   -1.0609 O   0  0  0  0  0  0  0  0  0  0  0  0
    3.2932   -1.5838   -1.8306 O   0  0  0  0  0  0  0  0  0  0  0  0
   -0.3999   -1.2626   -0.1863 C   0  0  0  0  0  0  0  0  0  0  0  0
   -1.8649   -0.3081    0.7807 C   0  0  0  0  0  0  0  0  0  0  0  0
    0.8004   -0.3757   -0.6031 C   0  0  0  0  0  0  0  0  0  0  0  0
   -0.7377   -1.1843    1.2879 C   0  0  0  0  0  0  0  0  0  0  0  0
    0.8170    1.0393    0.0567 C   0  0  0  0  0  0  0  0  0  0  0  0
   -1.5938    1.1955    1.0103 C   0  0  0  0  0  0  0  0  0  0  0  0
   -0.5364    1.7833    0.0422 C   0  0  0  0  0  0  0  0  0  0  0  0
    0.7158   -0.2448   -1.7086 H   0  0  0  0  0  0  0  0  0  0  0  0
   -2.8723   -0.6445    1.1107 H   0  0  0  0  0  0  0  0  0  0  0  0
   -0.3429   -2.3025   -0.5777 H   0  0  0  0  0  0  0  0  0  0  0  0
   -0.3570    2.8405    0.3345 H   0  0  0  0  0  0  0  0  0  0  0  0
   -0.9385    1.8020   -0.9944 H   0  0  0  0  0  0  0  0  0  0  0  0
    1.1981    0.9846    1.0985 H   0  0  0  0  0  0  0  0  0  0  0  0
    1.5492    1.6634   -0.5003 H   0  0  0  0  0  0  0  0  0  0  0  0
   -1.2813    1.3680    2.0632 H   0  0  0  0  0  0  0  0  0  0  0  0
   -2.5450    1.7487    0.8566 H   0  0  0  0  0  0  0  0  0  0  0  0
   -1.1141   -2.1556    1.6757 H   0  0  0  0  0  0  0  0  0  0  0  0
    0.0086   -0.6999    1.9504 H   0  0  0  0  0  0  0  0  0  0  0  0
    2.8776   -1.3908   -2.7096 H   0  0  0  0  0  0  0  0  0  0  0  0
  1  6  1  0
  1  5  1  0
  2  3  1  0
  2  7  1  0
  3  4  1  0
  4 23  1  0
  5 14  1  0
  5  7  1  0
  5  8  1  0
  6 13  1  0
  6 10  1  0
  6  8  1  0
  7 12  1  0
  7  9  1  0
  8 22  1  0
  8 21  1  0
  9 11  1  0
  9 17  1  0
  9 18  1  0
 10 20  1  0
 10 11  1  0
 10 19  1  0
 11 15  1  0
 11 16  1  0
M  END
