
     RDKit          3D

 23 24  0  0  0  0  0  0  0  0999 V2000
   -1.1624   -0.5930   -0.7784 O   0  0  0  0  0  0  0  0  0  0  0  0
    1.7424   -0.6935    0.8643 O   0  0  0  0  0  0  0  0  0  0  0  0
    2.8954   -0.0707    0.6731 O   0  0  0  0  0  0  0  0  0  0  0  0
    3.5702   -0.7548   -0.2369 O   0  0  0  0  0  0  0  0  0  0  0  0
   -0.1005   -1.3588   -0.3729 C   0  0  0  0  0  0  0  0  0  0  0  0
   -1.3789   -0.3902    0.6101 C   0  0  0  0  0  0  0  0  0  0  0  0
    0.8555   -0.2916   -0.1572 C   0  0  0  0  0  0  0  0  0  0  0  0
   -1.2219   -1.7463    0.5203 C   0  0  0  0  0  0  0  0  0  0  0  0
    0.4906    1.1196   -0.0181 C   0  0  0  0  0  0  0  0  0  0  0  0
   -2.0019    0.8399    0.3815 C   0  0  0  0  0  0  0  0  0  0  0  0
   -0.8725    1.6474   -0.2928 C   0  0  0  0  0  0  0  0  0  0  0  0
    1.5285   -0.3463   -1.0593 H   0  0  0  0  0  0  0  0  0  0  0  0
   -0.5857   -0.1203    1.3150 H   0  0  0  0  0  0  0  0  0  0  0  0
    0.1691   -2.1776   -1.0488 H   0  0  0  0  0  0  0  0  0  0  0  0
   -0.8852    2.6947    0.0274 H   0  0  0  0  0  0  0  0  0  0  0  0
   -1.0657    1.5156   -1.3877 H   0  0  0  0  0  0  0  0  0  0  0  0
    0.7133    1.4172    1.0432 H   0  0  0  0  0  0  0  0  0  0  0  0
    1.1679    1.8018   -0.5983 H   0  0  0  0  0  0  0  0  0  0  0  0
   -2.2703    1.4355    1.2917 H   0  0  0  0  0  0  0  0  0  0  0  0
   -2.9133    0.9112   -0.2659 H   0  0  0  0  0  0  0  0  0  0  0  0
   -1.9814   -2.2913   -0.1008 H   0  0  0  0  0  0  0  0  0  0  0  0
   -1.0172   -2.3566    1.4026 H   0  0  0  0  0  0  0  0  0  0  0  0
    4.3240   -0.1919   -0.5597 H   0  0  0  0  0  0  0  0  0  0  0  0
  1  6  1  0
  1  5  1  0
  2  3  1  0
  2  7  1  0
  3  4  1  0
  4 23  1  0
  5 14  1  0
  5  7  1  0
  5  8  1  0
  6 13  1  0
  6 10  1  0
  6  8  1  0
  7 12  1  0
  7  9  1  0
  8 22  1  0
  8 21  1  0
  9 11  1  0
  9 17  1  0
  9 18  1  0
 10 20  1  0
 10 11  1  0
 10 19  1  0
 11 15  1  0
 11 16  1  0
M  END
