
     RDKit          3D

  8  8  0  0  0  0  0  0  0  0999 V2000
   -0.0948   -1.2599   -0.2255 O   0  0  0  0  0  0  0  0  0  0  0  0
   -0.8351   -0.1070   -0.2217 C   0  0  0  0  0  0  0  0  0  0  0  0
    0.2644    0.7024    0.1775 C   0  0  0  0  0  0  0  0  0  0  0  0
    1.0153   -0.4451    0.1772 C   0  0  0  0  0  0  0  0  0  0  0  0
   -1.2005    0.1511   -1.2405 H   0  0  0  0  0  0  0  0  0  0  0  0
   -1.6384   -0.1360    0.5477 H   0  0  0  0  0  0  0  0  0  0  0  0
    0.4357    1.7494    0.3876 H   0  0  0  0  0  0  0  0  0  0  0  0
    2.0535   -0.6549    0.3978 H   0  0  0  0  0  0  0  0  0  0  0  0
  1  2  1  0
  1  4  1  0
  2  6  1  0
  2  5  1  0
  2  3  1  0
  3  7  1  0
  3  4  2  0
  4  8  1  0
M  END
