
     RDKit          3D

  8  8  0  0  0  0  0  0  0  0999 V2000
   -0.0413   -1.0208   -0.6657 O   0  0  0  0  0  0  0  0  0  0  0  0
   -0.9302   -0.1269    0.0004 C   0  0  0  0  0  0  0  0  0  0  0  0
    0.2989    0.7188   -0.1088 C   0  0  0  0  0  0  0  0  0  0  0  0
    0.9715   -0.4185    0.0885 C   0  0  0  0  0  0  0  0  0  0  0  0
   -1.7909    0.2114   -0.5861 H   0  0  0  0  0  0  0  0  0  0  0  0
   -1.0965   -0.4545    1.0304 H   0  0  0  0  0  0  0  0  0  0  0  0
    0.5807    1.7541   -0.0861 H   0  0  0  0  0  0  0  0  0  0  0  0
    2.0079   -0.6636    0.3273 H   0  0  0  0  0  0  0  0  0  0  0  0
  1  2  1  0
  1  4  1  0
  2  6  1  0
  2  5  1  0
  2  3  1  0
  3  7  1  0
  3  4  2  0
  4  8  1  0
M  END
