
     RDKit          3D

 17 18  0  0  0  0  0  0  0  0999 V2000
    0.6780   -0.1150    0.4673 C   0  0  0  0  0  0  0  0  0  0  0  0
   -0.6148    0.1003   -0.3373 C   0  0  0  0  0  0  0  0  0  0  0  0
    1.9227    0.5096   -0.1425 C   0  0  0  0  0  0  0  0  0  0  0  0
    1.7150   -0.9955   -0.2114 C   0  0  0  0  0  0  0  0  0  0  0  0
   -1.7324   -0.8500    0.0753 C   0  0  0  0  0  0  0  0  0  0  0  0
   -1.4389    1.2764    0.1727 C   0  0  0  0  0  0  0  0  0  0  0  0
   -2.5525    0.3258    0.5778 C   0  0  0  0  0  2  0  0  0  0  0  0
    0.6602   -0.1633    1.5779 H   0  0  0  0  0  0  0  0  0  0  0  0
   -0.4776    0.1320   -1.4426 H   0  0  0  0  0  0  0  0  0  0  0  0
    1.7834    1.0304   -1.1142 H   0  0  0  0  0  0  0  0  0  0  0  0
    2.6883    0.8251    0.5974 H   0  0  0  0  0  0  0  0  0  0  0  0
    2.3575   -1.5712    0.4877 H   0  0  0  0  0  0  0  0  0  0  0  0
    1.4521   -1.3700   -1.2241 H   0  0  0  0  0  0  0  0  0  0  0  0
   -2.2153   -1.3449   -0.7945 H   0  0  0  0  0  0  0  0  0  0  0  0
   -1.4638   -1.5456    0.9002 H   0  0  0  0  0  0  0  0  0  0  0  0
   -1.7593    1.9593   -0.6432 H   0  0  0  0  0  0  0  0  0  0  0  0
   -1.0025    1.7966    1.0533 H   0  0  0  0  0  0  0  0  0  0  0  0
  1  4  1  0
  1  2  1  0
  1  3  1  0
  1  8  1  0
  2  6  1  0
  2  9  1  0
  2  5  1  0
  3  4  1  0
  3 11  1  0
  3 10  1  0
  4 12  1  0
  4 13  1  0
  5 14  1  0
  5  7  1  0
  5 15  1  0
  6 17  1  0
  6  7  1  0
  6 16  1  0
M  RAD  1   7   3
M  END
