
     RDKit          3D

 17 17  0  0  0  0  0  0  0  0999 V2000
   -1.7074   -0.6875   -0.3591 C   0  0  0  0  0  0  0  0  0  0  0  0
   -1.5840    0.8159   -0.6237 C   0  0  0  0  0  0  0  0  0  0  0  0
   -0.4173   -1.1215    0.3288 C   0  0  0  0  0  0  0  0  0  0  0  0
   -0.0940    1.1415   -0.6313 C   0  0  0  0  0  0  0  0  0  0  0  0
    0.5322   -0.0208    0.0415 C   0  0  0  0  0  0  0  0  0  0  0  0
    3.0644   -0.1196    0.6612 C   0  0  0  0  0  0  0  0  0  0  0  0
    1.8002   -0.0702    0.3518 C   0  0  0  0  0  0  0  0  0  0  0  0
   -2.5947   -0.9129    0.2715 H   0  0  0  0  0  0  0  0  0  0  0  0
   -1.8093   -1.2238   -1.3285 H   0  0  0  0  0  0  0  0  0  0  0  0
   -2.0817    1.3756    0.1990 H   0  0  0  0  0  0  0  0  0  0  0  0
   -2.0613    1.0945   -1.5883 H   0  0  0  0  0  0  0  0  0  0  0  0
   -0.0517   -2.0839   -0.0915 H   0  0  0  0  0  0  0  0  0  0  0  0
   -0.5664   -1.2143    1.4265 H   0  0  0  0  0  0  0  0  0  0  0  0
    0.2871    1.2252   -1.6722 H   0  0  0  0  0  0  0  0  0  0  0  0
    0.1061    2.0818   -0.0725 H   0  0  0  0  0  0  0  0  0  0  0  0
    3.4746   -1.0098    1.1178 H   0  0  0  0  0  0  0  0  0  0  0  0
    3.7031    0.7298    0.4612 H   0  0  0  0  0  0  0  0  0  0  0  0
  1  9  1  0
  1  3  1  0
  1  2  1  0
  1  8  1  0
  2 11  1  0
  2  4  1  0
  2 10  1  0
  3 12  1  0
  3 13  1  0
  3  5  1  0
  4 14  1  0
  4 15  1  0
  4  5  1  0
  5  7  2  3
  6 17  1  0
  6  7  2  3
  6 16  1  0
M  END
