
     RDKit          3D

 17 17  0  0  0  0  0  0  0  0999 V2000
   -1.7344   -0.5630   -0.1412 C   0  0  0  0  0  0  0  0  0  0  0  0
   -1.5110    0.8193   -0.7379 C   0  0  0  0  0  0  0  0  0  0  0  0
   -0.3537   -1.0729    0.2552 C   0  0  0  0  0  0  0  0  0  0  0  0
    0.0027    0.8826   -0.9121 C   0  0  0  0  0  0  0  0  0  0  0  0
    0.3958    0.1889    0.3575 C   0  0  0  0  0  0  0  0  0  0  0  0
    2.8814   -0.0218    1.0654 C   0  0  0  0  0  0  0  0  0  0  0  0
    1.5795    0.1271    0.9244 C   0  0  0  0  0  0  0  0  0  0  0  0
   -2.3238   -0.4977    0.8081 H   0  0  0  0  0  0  0  0  0  0  0  0
   -2.2277   -1.2118   -0.8805 H   0  0  0  0  0  0  0  0  0  0  0  0
   -1.7484    1.5506    0.0560 H   0  0  0  0  0  0  0  0  0  0  0  0
   -2.0583    0.9710   -1.6755 H   0  0  0  0  0  0  0  0  0  0  0  0
   -0.0163   -1.7090   -0.5937 H   0  0  0  0  0  0  0  0  0  0  0  0
   -0.3677   -1.6748    1.1705 H   0  0  0  0  0  0  0  0  0  0  0  0
    0.3093    0.2560   -1.7783 H   0  0  0  0  0  0  0  0  0  0  0  0
    0.3849    1.9093   -0.9477 H   0  0  0  0  0  0  0  0  0  0  0  0
    3.4178   -0.8692    0.6309 H   0  0  0  0  0  0  0  0  0  0  0  0
    3.3698    0.9154    0.8910 H   0  0  0  0  0  0  0  0  0  0  0  0
  1  9  1  0
  1  3  1  0
  1  2  1  0
  1  8  1  0
  2 11  1  0
  2  4  1  0
  2 10  1  0
  3 12  1  0
  3 13  1  0
  3  5  1  0
  4 14  1  0
  4 15  1  0
  4  5  1  0
  5  7  2  3
  6 17  1  0
  6  7  2  3
  6 16  1  0
M  END
