
     RDKit          3D

 21 21  0  0  0  0  0  0  0  0999 V2000
    2.3724    1.4049    0.5142 O   0  0  0  0  0  0  0  0  0  0  0  0
    0.3625    2.4409   -0.9747 O   0  0  0  0  0  0  0  0  0  0  0  0
    1.2500   -0.7240    0.4045 C   0  0  0  0  0  0  0  0  0  0  0  0
    1.4433    0.6393   -0.1934 C   0  0  0  0  0  0  0  0  0  0  0  0
    0.1935   -1.4397   -0.4088 C   0  0  0  0  0  0  0  0  0  0  0  0
   -1.1142   -1.2655    0.3199 C   0  0  0  0  0  0  0  0  0  0  0  0
   -1.8577   -0.0316   -0.1124 C   0  0  0  0  0  0  0  0  0  0  0  0
   -1.1610    1.2437    0.2691 C   0  0  0  0  0  0  0  0  0  0  0  0
    0.1674    1.3865   -0.3709 C   0  0  0  0  0  0  0  0  0  0  0  0
    1.8795    0.4849   -1.2114 H   0  0  0  0  0  0  0  0  0  0  0  0
    0.4786   -2.5152   -0.5278 H   0  0  0  0  0  0  0  0  0  0  0  0
    0.1361   -1.0108   -1.4406 H   0  0  0  0  0  0  0  0  0  0  0  0
    2.2103   -1.2796    0.2546 H   0  0  0  0  0  0  0  0  0  0  0  0
    0.9495   -0.7121    1.4645 H   0  0  0  0  0  0  0  0  0  0  0  0
   -1.7503   -2.1383    0.0379 H   0  0  0  0  0  0  0  0  0  0  0  0
   -0.9714   -1.2910    1.4100 H   0  0  0  0  0  0  0  0  0  0  0  0
   -2.8325   -0.0416    0.4251 H   0  0  0  0  0  0  0  0  0  0  0  0
   -2.0349   -0.0583   -1.1984 H   0  0  0  0  0  0  0  0  0  0  0  0
   -1.8111    2.0790   -0.0676 H   0  0  0  0  0  0  0  0  0  0  0  0
   -1.1280    1.3084    1.3730 H   0  0  0  0  0  0  0  0  0  0  0  0
    3.2182    1.5200    0.0330 H   0  0  0  0  0  0  0  0  0  0  0  0
  1 21  1  0
  1  4  1  0
  2  9  2  0
  3  5  1  0
  3 13  1  0
  3 14  1  0
  3  4  1  0
  4 10  1  0
  4  9  1  0
  5  6  1  0
  5 12  1  0
  5 11  1  0
  6 16  1  0
  6  7  1  0
  6 15  1  0
  7 17  1  0
  7  8  1  0
  7 18  1  0
  8 20  1  0
  8 19  1  0
  8  9  1  0
M  END
