
     RDKit          3D

 21 21  0  0  0  0  0  0  0  0999 V2000
   -3.6453   -1.1702   -0.0118 O   0  0  0  0  0  0  0  0  0  0  0  0
   -4.2249   -0.1487    0.6281 O   0  0  0  0  0  0  0  0  0  0  0  0
   -2.6198   -0.3663   -0.5151 C   0  0  0  0  0  0  0  0  0  0  0  0
    2.2577    0.5032   -0.1152 C   0  0  0  0  0  0  0  0  0  0  0  0
    1.1551   -0.4650    0.3259 C   0  0  0  0  0  0  0  0  0  0  0  0
   -3.2589    0.7645    0.1979 C   0  0  0  0  0  0  0  0  0  0  0  0
    3.6137    0.0878    0.4479 C   0  0  0  0  0  0  0  0  0  0  0  0
   -1.2824   -0.7695    0.0419 C   0  0  0  0  0  0  0  0  0  0  0  0
   -0.1820   -0.0555   -0.2287 C   0  0  0  0  0  0  0  0  0  0  0  0
    2.3191    0.5200   -1.2255 H   0  0  0  0  0  0  0  0  0  0  0  0
    2.0194    1.5294    0.2410 H   0  0  0  0  0  0  0  0  0  0  0  0
   -2.6599   -0.2951   -1.6241 H   0  0  0  0  0  0  0  0  0  0  0  0
    1.0971   -0.4792    1.4365 H   0  0  0  0  0  0  0  0  0  0  0  0
    1.3969   -1.4899   -0.0320 H   0  0  0  0  0  0  0  0  0  0  0  0
   -2.6810    1.1738    1.0558 H   0  0  0  0  0  0  0  0  0  0  0  0
   -3.6975    1.5233   -0.4851 H   0  0  0  0  0  0  0  0  0  0  0  0
    3.8874   -0.9264    0.0865 H   0  0  0  0  0  0  0  0  0  0  0  0
    4.3913    0.8060    0.1124 H   0  0  0  0  0  0  0  0  0  0  0  0
    3.5865    0.0869    1.5585 H   0  0  0  0  0  0  0  0  0  0  0  0
   -0.2602    0.8308   -0.8545 H   0  0  0  0  0  0  0  0  0  0  0  0
   -1.2122   -1.6601    0.6615 H   0  0  0  0  0  0  0  0  0  0  0  0
  1  2  1  0
  1  3  1  0
  2  6  1  0
  3  8  1  0
  3  6  1  0
  3 12  1  0
  4  7  1  0
  4 10  1  0
  4 11  1  0
  4  5  1  0
  5 14  1  0
  5  9  1  0
  5 13  1  0
  6 16  1  0
  6 15  1  0
  7 18  1  0
  7 19  1  0
  7 17  1  0
  8  9  2  3
  8 21  1  0
  9 20  1  0
M  END
