
     RDKit          3D

 19 20  0  0  0  0  0  0  0  0999 V2000
    2.6463   -0.5269   -0.4787 O   0  0  0  0  0  0  0  0  0  0  0  0
    2.0888   -1.6345   -0.9831 O   0  0  0  0  0  0  0  0  0  0  0  0
    1.5473   -0.2562    0.3416 C   0  0  0  0  0  0  0  0  0  0  0  0
    0.9103    1.0954   -0.0191 C   0  0  0  0  0  0  0  0  0  0  0  0
   -0.4757    1.2660    0.6224 C   0  0  0  0  0  0  0  0  0  0  0  0
   -1.6018    0.6507   -0.2221 C   0  0  0  0  0  0  0  0  0  0  0  0
    0.9305   -1.4923   -0.2158 C   0  0  0  0  0  0  0  0  0  0  0  0
   -1.5246   -0.8761   -0.3206 C   0  0  0  0  0  0  0  0  0  0  0  0
   -0.2969   -1.3232   -1.1115 C   0  0  0  0  0  2  0  0  0  0  0  0
    1.8170   -0.3492    1.4167 H   0  0  0  0  0  0  0  0  0  0  0  0
   -0.4890    0.8414    1.6504 H   0  0  0  0  0  0  0  0  0  0  0  0
   -0.6822    2.3544    0.7168 H   0  0  0  0  0  0  0  0  0  0  0  0
    1.5788    1.8942    0.3687 H   0  0  0  0  0  0  0  0  0  0  0  0
    0.8534    1.2292   -1.1223 H   0  0  0  0  0  0  0  0  0  0  0  0
   -1.5980    1.0955   -1.2417 H   0  0  0  0  0  0  0  0  0  0  0  0
   -2.5731    0.9185    0.2476 H   0  0  0  0  0  0  0  0  0  0  0  0
    0.8357   -2.3163    0.5246 H   0  0  0  0  0  0  0  0  0  0  0  0
   -1.5433   -1.3368    0.6916 H   0  0  0  0  0  0  0  0  0  0  0  0
   -2.4234   -1.2338   -0.8656 H   0  0  0  0  0  0  0  0  0  0  0  0
  1  2  1  0
  1  3  1  0
  2  7  1  0
  3 10  1  0
  3  7  1  0
  3  4  1  0
  4  5  1  0
  4 13  1  0
  4 14  1  0
  5 11  1  0
  5 12  1  0
  5  6  1  0
  6 15  1  0
  6 16  1  0
  6  8  1  0
  7 17  1  0
  7  9  1  0
  8 18  1  0
  8  9  1  0
  8 19  1  0
M  RAD  1   9   3
M  END
