
     RDKit          3D

 22 23  0  0  0  0  0  0  0  0999 V2000
   -1.5464    0.0351   -0.1767 C   0  0  0  0  0  0  0  0  0  0  0  0
   -0.1440   -0.3327    0.3633 C   0  0  0  0  0  0  0  0  0  0  0  0
    2.7054   -0.4625   -0.0274 C   0  0  0  0  0  0  0  0  0  0  0  0
   -2.6498   -0.2361    0.8479 C   0  0  0  0  0  0  0  0  0  0  0  0
    0.6575    0.8884    0.0507 C   0  0  0  0  0  0  0  0  0  0  0  0
   -1.4462    1.5043   -0.4838 C   0  0  0  0  0  0  0  0  0  0  0  0
    0.4774   -1.5505   -0.2842 C   0  0  0  0  0  0  0  0  0  0  0  0
    1.9802    0.8560   -0.1354 C   0  0  0  0  0  0  0  0  0  0  0  0
    1.8128   -1.6149   -0.4488 C   0  0  0  0  0  0  0  0  0  0  0  0
   -0.2149    1.9673   -0.3571 C   0  0  0  0  0  0  0  0  0  0  0  0
   -1.7752   -0.5098   -1.1195 H   0  0  0  0  0  0  0  0  0  0  0  0
   -0.1494   -0.4766    1.4667 H   0  0  0  0  0  0  0  0  0  0  0  0
    3.0255   -0.6179    1.0244 H   0  0  0  0  0  0  0  0  0  0  0  0
    3.6086   -0.4400   -0.6729 H   0  0  0  0  0  0  0  0  0  0  0  0
   -3.6367    0.0518    0.4271 H   0  0  0  0  0  0  0  0  0  0  0  0
   -2.4746    0.3434    1.7802 H   0  0  0  0  0  0  0  0  0  0  0  0
   -2.6754   -1.3186    1.0950 H   0  0  0  0  0  0  0  0  0  0  0  0
   -0.1431   -2.3980   -0.5592 H   0  0  0  0  0  0  0  0  0  0  0  0
   -2.2723    2.1086   -0.8360 H   0  0  0  0  0  0  0  0  0  0  0  0
    2.2598   -2.5093   -0.8716 H   0  0  0  0  0  0  0  0  0  0  0  0
    2.5087    1.7361   -0.4806 H   0  0  0  0  0  0  0  0  0  0  0  0
    0.0920    2.9759   -0.6021 H   0  0  0  0  0  0  0  0  0  0  0  0
  1  6  1  0
  1 11  1  0
  1  2  1  0
  1  4  1  0
  2  5  1  0
  2 12  1  0
  2  7  1  0
  3  9  1  0
  3 14  1  0
  3 13  1  0
  3  8  1  0
  4 17  1  0
  4 15  1  0
  4 16  1  0
  5  8  2  0
  5 10  1  0
  6 19  1  0
  6 10  2  0
  7  9  2  0
  7 18  1  0
  8 21  1  0
  9 20  1  0
 10 22  1  0
M  END
