
     RDKit          3D

 21 21  0  0  0  0  0  0  0  0999 V2000
   -0.2317    0.3418    1.1482 O   0  0  0  0  0  0  0  0  0  0  0  0
    1.0113    0.7227    1.1188 O   0  0  0  0  0  0  0  0  0  0  0  0
   -0.7733    0.3036   -0.1236 C   0  0  0  0  0  0  0  0  0  0  0  0
   -2.0181   -0.5646   -0.0269 C   0  0  0  0  0  0  0  0  0  0  0  0
    1.8483   -0.2740    0.6242 C   0  0  0  0  0  0  0  0  0  0  0  0
   -3.1976    0.3871   -0.1585 C   0  0  0  0  0  0  0  0  0  0  0  0
    3.2026    0.3887    0.4111 C   0  0  0  0  0  0  0  0  0  0  0  0
    0.1291   -0.3239   -1.1256 C   0  0  0  0  0  0  0  0  0  0  0  0
    1.3353   -0.7232   -0.7009 C   0  0  0  0  0  0  0  0  0  0  0  0
   -0.9877    1.3280   -0.4612 H   0  0  0  0  0  0  0  0  0  0  0  0
   -2.0730   -1.2868   -0.8677 H   0  0  0  0  0  0  0  0  0  0  0  0
   -2.0635   -1.1468    0.9072 H   0  0  0  0  0  0  0  0  0  0  0  0
    1.8994   -1.1375    1.3076 H   0  0  0  0  0  0  0  0  0  0  0  0
   -2.9160    1.3329    0.3699 H   0  0  0  0  0  0  0  0  0  0  0  0
   -4.1165   -0.0678    0.2334 H   0  0  0  0  0  0  0  0  0  0  0  0
    3.4709    0.8543    1.3755 H   0  0  0  0  0  0  0  0  0  0  0  0
    3.9211   -0.3649    0.0663 H   0  0  0  0  0  0  0  0  0  0  0  0
   -3.2518    0.6534   -1.2347 H   0  0  0  0  0  0  0  0  0  0  0  0
    3.0189    1.2077   -0.3205 H   0  0  0  0  0  0  0  0  0  0  0  0
   -0.0004   -0.0988   -2.1794 H   0  0  0  0  0  0  0  0  0  0  0  0
    1.7930   -1.5321   -1.2594 H   0  0  0  0  0  0  0  0  0  0  0  0
  1  3  1  0
  1  2  1  0
  2  5  1  0
  3  4  1  0
  3  8  1  0
  3 10  1  0
  4  6  1  0
  4 11  1  0
  4 12  1  0
  5  7  1  0
  5  9  1  0
  5 13  1  0
  6 14  1  0
  6 15  1  0
  6 18  1  0
  7 17  1  0
  7 16  1  0
  7 19  1  0
  8 20  1  0
  8  9  2  0
  9 21  1  0
M  END
