
     RDKit          3D

 23 24  0  0  0  0  0  0  0  0999 V2000
    2.3616   -1.1403    0.4354 O   0  0  0  0  0  0  0  0  0  0  0  0
    1.2790    1.5309    0.6380 O   0  0  0  0  0  0  0  0  0  0  0  0
    2.4145   -0.1199    1.2727 O   0  0  0  0  0  0  0  0  0  0  0  0
    2.4601    0.9530    0.4961 O   0  0  0  0  0  0  0  0  0  0  0  0
    1.1111   -1.1504   -0.1301 C   0  0  0  0  0  0  0  0  0  0  0  0
    0.4437    1.2604   -0.4609 C   0  0  0  0  0  0  0  0  0  0  0  0
    0.8413   -0.0270   -1.0877 C   0  0  0  0  0  0  0  0  0  0  0  0
    0.0126   -1.1828    0.8941 C   0  0  0  0  0  0  0  0  0  0  0  0
   -0.9770    1.4714   -0.1344 C   0  0  0  0  0  0  0  0  0  0  0  0
   -1.2612   -1.0395    0.0965 C   0  0  0  0  0  0  0  0  0  0  0  0
   -1.8463    0.3255    0.1633 C   0  0  0  0  0  0  0  0  0  0  0  0
    1.0174   -2.0994   -0.7167 H   0  0  0  0  0  0  0  0  0  0  0  0
    0.7348    2.0615   -1.1933 H   0  0  0  0  0  0  0  0  0  0  0  0
   -1.1743   -1.4564   -0.9361 H   0  0  0  0  0  0  0  0  0  0  0  0
   -1.9899   -1.7344    0.5899 H   0  0  0  0  0  0  0  0  0  0  0  0
    0.0495   -0.3560    1.6194 H   0  0  0  0  0  0  0  0  0  0  0  0
    0.0683   -2.1198    1.4676 H   0  0  0  0  0  0  0  0  0  0  0  0
   -2.3050    0.4116    1.1845 H   0  0  0  0  0  0  0  0  0  0  0  0
   -2.7428    0.3005   -0.5115 H   0  0  0  0  0  0  0  0  0  0  0  0
   -0.9875    2.1604    0.7535 H   0  0  0  0  0  0  0  0  0  0  0  0
    1.8212    0.1460   -1.6072 H   0  0  0  0  0  0  0  0  0  0  0  0
    0.1501   -0.2902   -1.9129 H   0  0  0  0  0  0  0  0  0  0  0  0
   -1.4812    2.0947   -0.9202 H   0  0  0  0  0  0  0  0  0  0  0  0
  1  3  1  0
  1  5  1  0
  2  6  1  0
  2  4  1  0
  3  4  1  0
  5  7  1  0
  5 12  1  0
  5  8  1  0
  6  7  1  0
  6  9  1  0
  6 13  1  0
  7 22  1  0
  7 21  1  0
  8 10  1  0
  8 16  1  0
  8 17  1  0
  9 20  1  0
  9 23  1  0
  9 11  1  0
 10 11  1  0
 10 15  1  0
 10 14  1  0
 11 19  1  0
 11 18  1  0
M  END
