
     RDKit          3D

 17 17  0  0  0  0  0  0  0  0999 V2000
    1.9480   -0.6290    1.0049 O   0  0  0  0  0  0  0  0  0  0  0  0
    1.0918   -0.5620   -0.1158 C   0  0  0  0  0  0  0  0  0  0  0  0
   -0.1311    0.2799    0.1121 C   0  0  0  0  0  0  0  0  0  0  0  0
   -1.4194   -0.5063    0.0472 C   0  0  0  0  0  0  0  0  0  0  0  0
   -2.5209    0.4771    0.4324 C   0  0  0  0  0  0  0  0  0  0  0  0
    2.1991    0.2975   -0.6367 C   0  0  0  0  0  0  0  0  0  0  0  0
    3.0368   -0.2732    0.2319 C   0  0  0  0  0  0  0  0  0  0  0  0
    0.9496   -1.5074   -0.6522 H   0  0  0  0  0  0  0  0  0  0  0  0
   -0.2295    1.1045   -0.6363 H   0  0  0  0  0  0  0  0  0  0  0  0
   -0.0803    0.6868    1.1534 H   0  0  0  0  0  0  0  0  0  0  0  0
   -1.6262   -0.9322   -0.9441 H   0  0  0  0  0  0  0  0  0  0  0  0
   -1.3911   -1.3162    0.8074 H   0  0  0  0  0  0  0  0  0  0  0  0
   -2.2466    1.4570   -0.0333 H   0  0  0  0  0  0  0  0  0  0  0  0
   -2.4560    0.5714    1.5347 H   0  0  0  0  0  0  0  0  0  0  0  0
   -3.5216    0.1269    0.0941 H   0  0  0  0  0  0  0  0  0  0  0  0
    2.3104    1.2704   -1.1168 H   0  0  0  0  0  0  0  0  0  0  0  0
    4.0870   -0.5453    0.2224 H   0  0  0  0  0  0  0  0  0  0  0  0
  1  7  1  0
  1  2  1  0
  2  3  1  0
  2  8  1  0
  2  6  1  0
  3  9  1  0
  3 10  1  0
  3  4  1  0
  4  5  1  0
  4 12  1  0
  4 11  1  0
  5 15  1  0
  5 14  1  0
  5 13  1  0
  6  7  2  0
  6 16  1  0
  7 17  1  0
M  END
