
     RDKit          3D

 10 10  0  0  0  0  0  0  0  0999 V2000
    0.1020    0.0969    0.5160 C   0  0  0  0  0  0  0  0  0  0  0  0
   -1.2633   -0.0211   -0.1440 C   0  0  0  0  0  0  0  0  0  0  0  0
    1.1729   -0.7165   -0.0712 C   0  0  0  0  0  0  0  0  0  0  0  0
    1.1869    0.7536   -0.1732 C   0  0  0  0  0  0  0  0  0  0  0  0
    0.0257    0.1340    1.6200 H   0  0  0  0  0  0  0  0  0  0  0  0
   -1.1335   -0.1899   -1.2423 H   0  0  0  0  0  0  0  0  0  0  0  0
   -1.8203    0.8997    0.0815 H   0  0  0  0  0  0  0  0  0  0  0  0
   -1.7344   -0.9369    0.2929 H   0  0  0  0  0  0  0  0  0  0  0  0
    1.4892   -1.5312   -0.7307 H   0  0  0  0  0  0  0  0  0  0  0  0
    1.9749    1.5115   -0.1491 H   0  0  0  0  0  0  0  0  0  0  0  0
  1  4  1  0
  1  5  1  0
  1  3  1  0
  1  2  1  0
  2  8  1  0
  2  7  1  0
  2  6  1  0
  3  4  2  0
  3  9  1  0
  4 10  1  0
M  END
