
     RDKit          3D

 20 20  0  0  0  0  0  0  0  0999 V2000
   -2.3503   -0.8428    0.0064 C   0  0  0  0  0  0  0  0  0  0  0  0
    4.0643    0.3138   -0.2516 C   0  0  0  0  0  0  0  0  0  0  0  0
   -0.8378   -0.8968   -0.0367 C   0  0  0  0  0  0  0  0  0  0  0  0
   -0.0472    0.3637   -0.1291 C   0  0  0  0  0  0  0  0  0  0  0  0
   -2.9120    0.5531   -0.0522 C   0  0  0  0  0  0  0  0  0  0  0  0
   -0.6744    1.5443   -0.1740 C   0  0  0  0  0  0  0  0  0  0  0  0
   -2.1411    1.6395   -0.1345 C   0  0  0  0  0  0  0  0  0  0  0  0
   -0.2432   -2.0961    0.0102 C   0  0  0  0  0  0  0  0  0  0  0  0
    2.6024    0.3326   -0.2081 C   0  0  0  0  0  0  0  0  0  0  0  0
    1.3973    0.3469   -0.1722 C   0  0  0  0  0  0  0  0  0  0  0  0
   -2.7044   -1.3197    0.9456 H   0  0  0  0  0  0  0  0  0  0  0  0
   -2.7592   -1.4172   -0.8525 H   0  0  0  0  0  0  0  0  0  0  0  0
    4.4221   -0.7353   -0.2057 H   0  0  0  0  0  0  0  0  0  0  0  0
    4.4124    0.7822   -1.1952 H   0  0  0  0  0  0  0  0  0  0  0  0
    4.4674    0.8802    0.6130 H   0  0  0  0  0  0  0  0  0  0  0  0
   -3.9877    0.6749   -0.0260 H   0  0  0  0  0  0  0  0  0  0  0  0
   -0.1048    2.4645   -0.2413 H   0  0  0  0  0  0  0  0  0  0  0  0
   -2.6032    2.6177   -0.1735 H   0  0  0  0  0  0  0  0  0  0  0  0
   -0.8335   -3.0019    0.0773 H   0  0  0  0  0  0  0  0  0  0  0  0
    0.8329   -2.2038   -0.0167 H   0  0  0  0  0  0  0  0  0  0  0  0
  1 11  1  0
  1  3  1  0
  1  5  1  0
  1 12  1  0
  2 15  1  0
  2  9  1  0
  2 13  1  0
  2 14  1  0
  3  8  2  3
  3  4  1  0
  4  6  2  0
  4 10  1  0
  5 16  1  0
  5  7  2  0
  6 17  1  0
  6  7  1  0
  7 18  1  0
  8 19  1  0
  8 20  1  0
  9 10  3  0
M  END
