
     RDKit          3D

 22 22  0  0  0  0  0  0  0  0999 V2000
   -0.4719   -0.1562    0.3224 C   0  0  0  0  0  0  0  0  0  0  0  0
   -1.0604    0.7178   -0.7725 C   0  0  0  0  0  0  0  0  0  0  0  0
   -1.3700   -0.0094    1.4969 C   0  0  0  0  0  0  0  0  0  0  0  0
    0.9338    0.1368    0.6090 C   0  0  0  0  0  0  0  0  0  0  0  0
   -2.3583    0.0661   -1.1358 C   0  0  0  0  0  0  0  0  0  0  0  0
   -2.6577   -0.2457    1.2359 C   0  0  0  0  0  0  0  0  0  0  0  0
    1.8487   -0.5803   -0.0460 C   0  0  0  0  0  0  0  0  0  0  0  0
   -3.0933   -0.4537   -0.1516 C   0  0  0  0  0  0  0  0  0  0  0  0
    2.8586    0.0797   -0.8810 C   0  0  0  0  0  0  0  0  0  0  0  0
    4.1584   -0.1786   -0.7333 C   0  0  0  0  0  0  0  0  0  0  0  0
   -0.5828   -1.2130   -0.0241 H   0  0  0  0  0  0  0  0  0  0  0  0
   -0.3750    0.7931   -1.6346 H   0  0  0  0  0  0  0  0  0  0  0  0
   -1.3335    1.7160   -0.3465 H   0  0  0  0  0  0  0  0  0  0  0  0
   -1.1780    0.7047    2.3007 H   0  0  0  0  0  0  0  0  0  0  0  0
    1.3142    0.8947    1.2616 H   0  0  0  0  0  0  0  0  0  0  0  0
   -2.8166    0.2710   -2.0814 H   0  0  0  0  0  0  0  0  0  0  0  0
   -3.3384   -0.4426    2.0651 H   0  0  0  0  0  0  0  0  0  0  0  0
   -3.9458   -1.0975   -0.3706 H   0  0  0  0  0  0  0  0  0  0  0  0
    2.5330    0.9662   -1.4233 H   0  0  0  0  0  0  0  0  0  0  0  0
    1.6125   -1.6011   -0.3526 H   0  0  0  0  0  0  0  0  0  0  0  0
    4.8843    0.6277   -0.8525 H   0  0  0  0  0  0  0  0  0  0  0  0
    4.4381   -0.9957   -0.0929 H   0  0  0  0  0  0  0  0  0  0  0  0
  1  2  1  0
  1 11  1  0
  1  4  1  0
  1  3  1  0
  2 12  1  0
  2  5  1  0
  2 13  1  0
  3  6  2  0
  3 14  1  0
  4  7  2  3
  4 15  1  0
  5 16  1  0
  5  8  2  0
  6 17  1  0
  6  8  1  0
  7  9  1  0
  7 20  1  0
  8 18  1  0
  9 10  2  3
  9 19  1  0
 10 21  1  0
 10 22  1  0
M  END
