
     RDKit          3D

 15 15  0  0  0  0  0  0  0  0999 V2000
   -0.4266   -0.8703   -0.5884 C   0  0  0  0  0  0  0  0  0  0  0  0
   -1.6667   -0.6126    0.2145 C   0  0  0  0  0  0  0  0  0  0  0  0
    0.4026    0.3462   -0.5517 C   0  0  0  0  0  0  0  0  0  0  0  0
   -1.6035    0.8426    0.4398 C   0  0  0  0  0  0  0  0  0  0  0  0
   -0.3455    1.2672    0.3128 C   0  0  0  0  0  0  0  0  0  0  0  0
    2.9668    0.0863   -0.0781 C   0  0  0  0  0  0  0  0  0  0  0  0
    1.7138    0.2670   -0.4493 C   0  0  0  0  0  0  0  0  0  0  0  0
    0.0999   -1.7940   -0.3138 H   0  0  0  0  0  0  0  0  0  0  0  0
   -0.7499   -0.9992   -1.6528 H   0  0  0  0  0  0  0  0  0  0  0  0
   -2.5890   -0.8693   -0.3383 H   0  0  0  0  0  0  0  0  0  0  0  0
   -1.6297   -1.1869    1.1655 H   0  0  0  0  0  0  0  0  0  0  0  0
   -2.4785    1.4518    0.6568 H   0  0  0  0  0  0  0  0  0  0  0  0
   -0.1437    2.3410    0.2780 H   0  0  0  0  0  0  0  0  0  0  0  0
    3.2466    0.6922    0.7869 H   0  0  0  0  0  0  0  0  0  0  0  0
    3.2035   -0.9622    0.1180 H   0  0  0  0  0  0  0  0  0  0  0  0
  1  8  1  0
  1  3  1  0
  1  9  1  0
  1  2  1  0
  2 11  1  0
  2 10  1  0
  2  4  1  0
  3  7  2  3
  3  5  1  0
  4 12  1  0
  4  5  2  0
  5 13  1  0
  6  7  2  3
  6 14  1  0
  6 15  1  0
M  END
