
     RDKit          3D

 20 21  0  0  0  0  0  0  0  0999 V2000
   -2.1752    0.6720   -0.0554 C   0  0  0  0  0  0  0  0  0  0  0  0
    2.8540   -0.4612    0.0838 C   0  0  0  0  0  0  0  0  0  0  0  0
   -0.6872    0.8506   -0.0008 C   0  0  0  0  0  0  0  0  0  0  0  0
    1.5674    0.3003    0.0605 C   0  0  0  0  0  0  0  0  0  0  0  0
    0.2274   -0.2622    0.0008 C   0  0  0  0  0  0  0  0  0  0  0  0
   -2.5483   -0.8006   -0.1066 C   0  0  0  0  0  0  0  0  0  0  0  0
    1.4402    1.6271    0.0911 C   0  0  0  0  0  0  0  0  0  0  0  0
    0.0107    1.9768    0.0522 C   0  0  0  0  0  0  0  0  0  0  0  0
   -0.1829   -1.5260   -0.0462 C   0  0  0  0  0  0  0  0  0  0  0  0
   -1.6380   -1.7966   -0.1022 C   0  0  0  0  0  0  0  0  0  0  0  0
   -2.6333    1.1310    0.8458 H   0  0  0  0  0  0  0  0  0  0  0  0
   -2.5726    1.1784   -0.9601 H   0  0  0  0  0  0  0  0  0  0  0  0
    2.8745   -1.1258    0.9724 H   0  0  0  0  0  0  0  0  0  0  0  0
    2.9352   -1.0783   -0.8351 H   0  0  0  0  0  0  0  0  0  0  0  0
    3.7220    0.2303    0.1311 H   0  0  0  0  0  0  0  0  0  0  0  0
   -3.5994   -1.0571   -0.1487 H   0  0  0  0  0  0  0  0  0  0  0  0
   -1.9756   -2.8243   -0.1405 H   0  0  0  0  0  0  0  0  0  0  0  0
   -0.4058    2.9753    0.0645 H   0  0  0  0  0  0  0  0  0  0  0  0
    0.5275   -2.3424   -0.0438 H   0  0  0  0  0  0  0  0  0  0  0  0
    2.2595    2.3327    0.1371 H   0  0  0  0  0  0  0  0  0  0  0  0
  1  6  1  0
  1 11  1  0
  1  3  1  0
  1 12  1  0
  2 13  1  0
  2 14  1  0
  2  4  1  0
  2 15  1  0
  3  8  2  0
  3  5  1  0
  4  7  2  0
  4  5  1  0
  5  9  2  0
  6 16  1  0
  6 10  2  0
  7  8  1  0
  7 20  1  0
  8 18  1  0
  9 19  1  0
  9 10  1  0
 10 17  1  0
M  END
