
     RDKit          3D

 21 21  0  0  0  0  0  0  0  0999 V2000
    1.7246   -0.0236   -0.7485 O   0  0  0  0  0  0  0  0  0  0  0  0
    2.4458   -1.1351   -0.6619 O   0  0  0  0  0  0  0  0  0  0  0  0
    3.7243   -0.8196   -0.6723 O   0  0  0  0  0  0  0  0  0  0  0  0
    4.1385   -0.4865    0.5359 O   0  0  0  0  0  0  0  0  0  0  0  0
   -0.1611    1.0064    0.2151 C   0  0  0  0  0  0  0  0  0  0  0  0
    0.6241   -0.2594    0.0891 C   0  0  0  0  0  0  0  0  0  0  0  0
   -1.5256    0.8271    0.8151 C   0  0  0  0  0  0  0  0  0  0  0  0
   -2.5078    0.1408   -0.0881 C   0  0  0  0  0  0  0  0  0  0  0  0
   -0.1316   -1.3701   -0.5428 C   0  0  0  0  0  0  0  0  0  0  0  0
   -1.8615   -0.2365   -1.3844 C   0  0  0  0  0  0  0  0  0  0  0  0
   -0.9774   -1.1935   -1.5321 C   0  0  0  0  0  0  0  0  0  0  0  0
   -1.9146    1.8581    1.0100 H   0  0  0  0  0  0  0  0  0  0  0  0
   -1.3942    0.3229    1.7969 H   0  0  0  0  0  0  0  0  0  0  0  0
    0.3977    1.6508    0.9432 H   0  0  0  0  0  0  0  0  0  0  0  0
   -0.1867    1.6128   -0.7225 H   0  0  0  0  0  0  0  0  0  0  0  0
    1.0563   -0.5416    1.0750 H   0  0  0  0  0  0  0  0  0  0  0  0
   -2.7648   -0.8292    0.4082 H   0  0  0  0  0  0  0  0  0  0  0  0
   -3.4260    0.7310   -0.2733 H   0  0  0  0  0  0  0  0  0  0  0  0
   -1.6531    0.6467   -1.9901 H   0  0  0  0  0  0  0  0  0  0  0  0
    0.0161   -2.3609   -0.1629 H   0  0  0  0  0  0  0  0  0  0  0  0
    4.3768    0.4593    0.6226 H   0  0  0  0  0  0  0  0  0  0  0  0
  1  6  1  0
  1  2  1  0
  2  3  1  0
  3  4  1  0
  4 21  1  0
  5  7  1  0
  5 15  1  0
  5  6  1  0
  5 14  1  0
  6 16  1  0
  6  9  1  0
  7 13  1  0
  7 12  1  0
  7  8  1  0
  8 18  1  0
  8 17  1  0
  8 10  1  0
  9 11  2  0
  9 20  1  0
 10 11  2  0
 10 19  1  0
M  END
