
     RDKit          3D

 19 19  0  0  0  0  0  0  0  0999 V2000
   -0.7632    0.4624    0.6149 C   0  0  0  0  0  0  0  0  0  0  0  0
    0.3276   -0.2413   -0.1787 C   0  0  0  0  0  0  0  0  0  0  0  0
   -1.6771   -0.6736    0.2211 C   0  0  0  0  0  0  0  0  0  0  0  0
   -0.4214   -1.5348    0.1187 C   0  0  0  0  0  0  0  0  0  0  0  0
   -1.1277    1.8195    0.0957 C   0  0  0  0  0  0  0  0  0  0  0  0
    1.6293   -0.2631    0.5347 C   0  0  0  0  0  0  0  0  0  0  0  0
    2.7767   -0.1472   -0.1037 C   0  0  0  0  0  0  0  0  0  0  0  0
   -0.5496    0.4023    1.7082 H   0  0  0  0  0  0  0  0  0  0  0  0
    0.3584    0.0318   -1.2406 H   0  0  0  0  0  0  0  0  0  0  0  0
   -2.3748   -0.9987    1.0248 H   0  0  0  0  0  0  0  0  0  0  0  0
   -2.2025   -0.5626   -0.7378 H   0  0  0  0  0  0  0  0  0  0  0  0
   -0.4258   -2.2677   -0.7056 H   0  0  0  0  0  0  0  0  0  0  0  0
   -0.1392   -1.9507    1.1037 H   0  0  0  0  0  0  0  0  0  0  0  0
   -0.6602    2.0221   -0.8994 H   0  0  0  0  0  0  0  0  0  0  0  0
   -2.2207    1.9887    0.0138 H   0  0  0  0  0  0  0  0  0  0  0  0
   -0.6502    2.5599    0.7869 H   0  0  0  0  0  0  0  0  0  0  0  0
    1.6306   -0.4995    1.5811 H   0  0  0  0  0  0  0  0  0  0  0  0
    2.8420    0.6068   -0.8821 H   0  0  0  0  0  0  0  0  0  0  0  0
    3.6479   -0.7544    0.0588 H   0  0  0  0  0  0  0  0  0  0  0  0
  1  2  1  0
  1  5  1  0
  1  3  1  0
  1  8  1  0
  2  6  1  0
  2  9  1  0
  2  4  1  0
  3 11  1  0
  3  4  1  0
  3 10  1  0
  4 12  1  0
  4 13  1  0
  5 14  1  0
  5 15  1  0
  5 16  1  0
  6  7  2  3
  6 17  1  0
  7 18  1  0
  7 19  1  0
M  END
