
     RDKit          3D

 21 21  0  0  0  0  0  0  0  0999 V2000
    3.6999   -0.7876   -0.7187 O   0  0  0  0  0  0  0  0  0  0  0  0
    4.5445   -0.2386   -1.5722 O   0  0  0  0  0  0  0  0  0  0  0  0
   -2.3819   -0.0581    0.1718 C   0  0  0  0  0  0  0  0  0  0  0  0
   -2.5469    1.3990    0.5801 C   0  0  0  0  0  0  0  0  0  0  0  0
   -3.1730    0.2994    1.4199 C   0  0  0  0  0  0  0  0  0  0  0  0
    1.4050   -0.8110   -0.0450 C   0  0  0  0  0  0  0  0  0  0  0  0
    2.4454   -0.2195   -0.9940 C   0  0  0  0  0  0  0  0  0  0  0  0
   -1.0133   -0.6192    0.4320 C   0  0  0  0  0  0  0  0  0  0  0  0
    0.0397   -0.2327   -0.2994 C   0  0  0  0  0  0  0  0  0  0  0  0
   -2.9601   -0.3653   -0.7253 H   0  0  0  0  0  0  0  0  0  0  0  0
   -1.6657    1.8799    1.0577 H   0  0  0  0  0  0  0  0  0  0  0  0
   -3.2791    1.9696   -0.0294 H   0  0  0  0  0  0  0  0  0  0  0  0
   -2.6599    0.1273    2.3908 H   0  0  0  0  0  0  0  0  0  0  0  0
   -4.2743    0.2158    1.3046 H   0  0  0  0  0  0  0  0  0  0  0  0
    1.7035   -0.5959    1.0043 H   0  0  0  0  0  0  0  0  0  0  0  0
    1.3673   -1.9135   -0.1851 H   0  0  0  0  0  0  0  0  0  0  0  0
    2.1498   -0.4422   -2.0450 H   0  0  0  0  0  0  0  0  0  0  0  0
    2.4871    0.8844   -0.8476 H   0  0  0  0  0  0  0  0  0  0  0  0
   -0.8918   -1.3722    1.2063 H   0  0  0  0  0  0  0  0  0  0  0  0
   -0.0968    0.5091   -1.0832 H   0  0  0  0  0  0  0  0  0  0  0  0
    5.1007    0.3713   -1.0226 H   0  0  0  0  0  0  0  0  0  0  0  0
  1  2  1  0
  1  7  1  0
  2 21  1  0
  3  5  1  0
  3  8  1  0
  3  4  1  0
  3 10  1  0
  4  5  1  0
  4 12  1  0
  4 11  1  0
  5 13  1  0
  5 14  1  0
  6 16  1  0
  6  9  1  0
  6 15  1  0
  6  7  1  0
  7 18  1  0
  7 17  1  0
  8  9  2  3
  8 19  1  0
  9 20  1  0
M  END
