
     RDKit          3D

 21 21  0  0  0  0  0  0  0  0999 V2000
   -0.0042    1.6165   -0.7328 O   0  0  0  0  0  0  0  0  0  0  0  0
   -0.7698    2.5154   -0.1402 O   0  0  0  0  0  0  0  0  0  0  0  0
   -1.4366   -0.3004   -0.4754 C   0  0  0  0  0  0  0  0  0  0  0  0
   -0.1533    0.4144   -0.0111 C   0  0  0  0  0  0  0  0  0  0  0  0
   -2.0249   -1.2970    0.5136 C   0  0  0  0  0  0  0  0  0  0  0  0
   -2.7003    0.0479    0.2984 C   0  0  0  0  0  0  0  0  0  0  0  0
    1.0576   -0.4866   -0.2927 C   0  0  0  0  0  0  0  0  0  0  0  0
    2.3386    0.1330    0.1998 C   0  0  0  0  0  0  0  0  0  0  0  0
    3.5068   -0.4941    0.0443 C   0  0  0  0  0  0  0  0  0  0  0  0
   -1.5848   -0.5482   -1.5485 H   0  0  0  0  0  0  0  0  0  0  0  0
   -0.1774    0.6102    1.0897 H   0  0  0  0  0  0  0  0  0  0  0  0
   -1.5008   -1.3879    1.4892 H   0  0  0  0  0  0  0  0  0  0  0  0
   -2.5593   -2.1496    0.0440 H   0  0  0  0  0  0  0  0  0  0  0  0
   -2.5814    0.7498    1.1514 H   0  0  0  0  0  0  0  0  0  0  0  0
   -3.6360   -0.0105   -0.2966 H   0  0  0  0  0  0  0  0  0  0  0  0
    0.9180   -1.4650    0.2178 H   0  0  0  0  0  0  0  0  0  0  0  0
    1.1383   -0.6706   -1.3870 H   0  0  0  0  0  0  0  0  0  0  0  0
    2.3252    1.1024    0.6913 H   0  0  0  0  0  0  0  0  0  0  0  0
    4.4220   -0.0358    0.4050 H   0  0  0  0  0  0  0  0  0  0  0  0
    3.5591   -1.4642   -0.4412 H   0  0  0  0  0  0  0  0  0  0  0  0
   -0.1368    3.1203    0.3254 H   0  0  0  0  0  0  0  0  0  0  0  0
  1  4  1  0
  1  2  1  0
  2 21  1  0
  3 10  1  0
  3  4  1  0
  3  6  1  0
  3  5  1  0
  4  7  1  0
  4 11  1  0
  5  6  1  0
  5 12  1  0
  5 13  1  0
  6 15  1  0
  6 14  1  0
  7 17  1  0
  7 16  1  0
  7  8  1  0
  8 18  1  0
  8  9  2  3
  9 20  1  0
  9 19  1  0
M  END
