
     RDKit          3D

 13 13  0  0  0  0  0  0  0  0999 V2000
   -0.1355    1.0634    0.0335 C   0  0  0  0  0  0  0  0  0  0  0  0
    0.4507   -0.3058    0.1784 C   0  0  0  0  0  0  0  0  0  0  0  0
   -1.5574    0.8307    0.4301 C   0  0  0  0  0  0  0  0  0  0  0  0
   -0.5509   -1.1180   -0.1610 C   0  0  0  0  0  0  0  0  0  0  0  0
   -1.8201   -0.4423    0.1293 C   0  0  0  0  0  0  0  0  0  0  0  0
    1.8190   -0.6296   -0.1563 C   0  0  0  0  0  0  0  0  0  0  0  0
    3.0285   -0.7249   -0.2346 C   0  0  0  0  0  0  0  0  0  0  0  0
   -0.0626    1.3108   -1.0448 H   0  0  0  0  0  0  0  0  0  0  0  0
    0.3348    1.8005    0.6943 H   0  0  0  0  0  0  0  0  0  0  0  0
   -2.2345    1.5221    0.9158 H   0  0  0  0  0  0  0  0  0  0  0  0
   -0.4957   -2.1124   -0.5976 H   0  0  0  0  0  0  0  0  0  0  0  0
   -2.8255   -0.7708   -0.0575 H   0  0  0  0  0  0  0  0  0  0  0  0
    4.0493   -0.4236   -0.3319 H   0  0  0  0  0  0  0  0  0  0  0  0
  1  3  1  0
  1  9  1  0
  1  8  1  0
  1  2  1  0
  2  4  2  0
  2  6  1  0
  3  5  2  0
  3 10  1  0
  4  5  1  0
  4 11  1  0
  5 12  1  0
  6  7  3  0
  7 13  1  0
M  END
