
     RDKit          3D

 20 20  0  0  0  0  0  0  0  0999 V2000
   -1.2571   -1.0610    0.2824 C   0  0  0  0  0  0  0  0  0  0  0  0
    2.0361   -0.9113   -0.4302 C   0  0  0  0  0  0  0  0  0  0  0  0
   -0.2233   -0.0074    0.0331 C   0  0  0  0  0  0  0  0  0  0  0  0
    1.0042   -0.3123    0.4547 C   0  0  0  0  0  0  0  0  0  0  0  0
   -2.6296   -0.5549   -0.0230 C   0  0  0  0  0  0  0  0  0  0  0  0
   -0.6877    1.3819    0.1132 C   0  0  0  0  0  0  0  0  0  0  0  0
   -2.9377    0.6841    0.3617 C   0  0  0  0  0  0  0  0  0  0  0  0
   -1.9041    1.7183    0.4993 C   0  0  0  0  0  0  0  0  0  0  0  0
    3.2626   -0.0943   -0.4604 C   0  0  0  0  0  0  0  0  0  0  0  0
    4.3610    0.4087   -0.3209 C   0  0  0  0  0  0  0  0  0  0  0  0
   -1.1785   -1.3661    1.3565 H   0  0  0  0  0  0  0  0  0  0  0  0
   -1.0303   -1.9591   -0.3452 H   0  0  0  0  0  0  0  0  0  0  0  0
    2.2453   -1.9192    0.0107 H   0  0  0  0  0  0  0  0  0  0  0  0
    1.6825   -1.0626   -1.4649 H   0  0  0  0  0  0  0  0  0  0  0  0
    1.2488   -0.2547    1.5070 H   0  0  0  0  0  0  0  0  0  0  0  0
   -3.2215   -1.0569   -0.7906 H   0  0  0  0  0  0  0  0  0  0  0  0
    0.0283    2.1493   -0.0925 H   0  0  0  0  0  0  0  0  0  0  0  0
   -2.1518    2.6885    0.9297 H   0  0  0  0  0  0  0  0  0  0  0  0
   -3.9824    0.9892    0.3413 H   0  0  0  0  0  0  0  0  0  0  0  0
    5.3353    0.5399    0.0982 H   0  0  0  0  0  0  0  0  0  0  0  0
  1 12  1  0
  1 11  1  0
  1  5  1  0
  1  3  1  0
  2  4  1  0
  2  9  1  0
  2 13  1  0
  2 14  1  0
  3  4  2  3
  3  6  1  0
  4 15  1  0
  5 16  1  0
  5  7  2  0
  6 17  1  0
  6  8  2  0
  7  8  1  0
  7 19  1  0
  8 18  1  0
  9 10  3  0
 10 20  1  0
M  END
