
     RDKit          3D

 16 16  0  0  0  0  0  0  0  0999 V2000
    0.5770   -0.1435    0.3441 C   0  0  0  0  0  0  0  0  0  0  0  0
   -0.4326   -1.2058   -0.1287 C   0  0  0  0  0  0  0  0  0  0  0  0
   -0.1920    1.1905    0.3663 C   0  0  0  0  0  0  0  0  0  0  0  0
    1.8165   -0.0821   -0.5553 C   0  0  0  0  0  0  0  0  0  0  0  0
   -1.7214   -0.4731   -0.2241 C   0  0  0  0  0  0  0  0  0  0  0  0
   -1.5921    0.8145    0.0419 C   0  0  0  0  0  0  0  0  0  0  0  0
    0.9043   -0.3902    1.3794 H   0  0  0  0  0  0  0  0  0  0  0  0
   -0.1762   -1.6286   -1.1245 H   0  0  0  0  0  0  0  0  0  0  0  0
   -0.5190   -2.0279    0.6139 H   0  0  0  0  0  0  0  0  0  0  0  0
   -0.1492    1.6553    1.3747 H   0  0  0  0  0  0  0  0  0  0  0  0
    0.1793    1.9128   -0.3930 H   0  0  0  0  0  0  0  0  0  0  0  0
    1.5314    0.1626   -1.6013 H   0  0  0  0  0  0  0  0  0  0  0  0
    2.5167    0.6950   -0.1817 H   0  0  0  0  0  0  0  0  0  0  0  0
    2.3403   -1.0616   -0.5445 H   0  0  0  0  0  0  0  0  0  0  0  0
   -2.6646   -0.9350   -0.4970 H   0  0  0  0  0  0  0  0  0  0  0  0
   -2.4184    1.5171    0.0096 H   0  0  0  0  0  0  0  0  0  0  0  0
  1  7  1  0
  1  3  1  0
  1  2  1  0
  1  4  1  0
  2  5  1  0
  2  9  1  0
  2  8  1  0
  3 10  1  0
  3  6  1  0
  3 11  1  0
  4 12  1  0
  4 14  1  0
  4 13  1  0
  5 15  1  0
  5  6  2  0
  6 16  1  0
M  END
