
     RDKit          3D

 21 21  0  0  0  0  0  0  0  0999 V2000
   -0.2312   -1.2052   -1.2073 O   0  0  0  0  0  0  0  0  0  0  0  0
   -0.4507   -1.9520   -0.1331 O   0  0  0  0  0  0  0  0  0  0  0  0
   -0.5767   -0.1100   -0.4218 C   0  0  0  0  0  0  0  0  0  0  0  0
    0.1615   -0.9215    0.5983 C   0  0  0  0  0  0  0  0  0  0  0  0
   -2.0506   -0.1064   -0.1305 C   0  0  0  0  0  0  0  0  0  0  0  0
    1.6512   -1.0278    0.4265 C   0  0  0  0  0  0  0  0  0  0  0  0
   -2.4620    1.0167    0.7837 C   0  0  0  0  0  0  0  0  0  0  0  0
    2.3732    0.2182    0.7667 C   0  0  0  0  0  0  0  0  0  0  0  0
    2.4430    1.1972   -0.1441 C   0  0  0  0  0  0  0  0  0  0  0  0
   -0.1449    0.8559   -0.7107 H   0  0  0  0  0  0  0  0  0  0  0  0
   -0.2131   -0.7725    1.6166 H   0  0  0  0  0  0  0  0  0  0  0  0
   -2.3010   -1.0564    0.4030 H   0  0  0  0  0  0  0  0  0  0  0  0
   -2.6683   -0.0951   -1.0416 H   0  0  0  0  0  0  0  0  0  0  0  0
    1.9757   -1.8571    1.1055 H   0  0  0  0  0  0  0  0  0  0  0  0
    1.8538   -1.3100   -0.6289 H   0  0  0  0  0  0  0  0  0  0  0  0
   -2.3083    0.6774    1.8381 H   0  0  0  0  0  0  0  0  0  0  0  0
   -1.8579    1.9266    0.6643 H   0  0  0  0  0  0  0  0  0  0  0  0
   -3.5578    1.1895    0.6742 H   0  0  0  0  0  0  0  0  0  0  0  0
    3.2498    0.1513    1.4192 H   0  0  0  0  0  0  0  0  0  0  0  0
    2.7989    2.1965    0.1062 H   0  0  0  0  0  0  0  0  0  0  0  0
    2.3155    0.9848   -1.1908 H   0  0  0  0  0  0  0  0  0  0  0  0
  1  3  1  0
  1  2  1  0
  2  4  1  0
  3  4  1  0
  3 10  1  0
  3  5  1  0
  4 11  1  0
  4  6  1  0
  5  7  1  0
  5 12  1  0
  5 13  1  0
  6 14  1  0
  6  8  1  0
  6 15  1  0
  7 16  1  0
  7 17  1  0
  7 18  1  0
  8  9  2  3
  8 19  1  0
  9 21  1  0
  9 20  1  0
M  END
