
     RDKit          3D

 21 21  0  0  0  0  0  0  0  0999 V2000
   -0.9872   -1.8817   -1.1567 O   0  0  0  0  0  0  0  0  0  0  0  0
   -0.1529   -2.4976   -0.3102 O   0  0  0  0  0  0  0  0  0  0  0  0
   -0.7739   -0.6285   -0.5752 C   0  0  0  0  0  0  0  0  0  0  0  0
    0.1443   -1.3163    0.3755 C   0  0  0  0  0  0  0  0  0  0  0  0
   -2.0617   -0.0815    0.0531 C   0  0  0  0  0  0  0  0  0  0  0  0
    1.6213   -0.9401    0.2211 C   0  0  0  0  0  0  0  0  0  0  0  0
   -1.7970    1.2166    0.8105 C   0  0  0  0  0  0  0  0  0  0  0  0
    1.8762    0.4172    0.8169 C   0  0  0  0  0  0  0  0  0  0  0  0
    2.3103    1.4432    0.0797 C   0  0  0  0  0  0  0  0  0  0  0  0
   -0.2876    0.0689   -1.2936 H   0  0  0  0  0  0  0  0  0  0  0  0
   -0.2048   -1.3670    1.4313 H   0  0  0  0  0  0  0  0  0  0  0  0
   -2.5117   -0.8290    0.7431 H   0  0  0  0  0  0  0  0  0  0  0  0
   -2.7951    0.1205   -0.7568 H   0  0  0  0  0  0  0  0  0  0  0  0
    2.2399   -1.6841    0.7660 H   0  0  0  0  0  0  0  0  0  0  0  0
    1.9201   -0.9766   -0.8509 H   0  0  0  0  0  0  0  0  0  0  0  0
   -1.0983    1.0377    1.6549 H   0  0  0  0  0  0  0  0  0  0  0  0
   -1.3601    1.9782    0.1298 H   0  0  0  0  0  0  0  0  0  0  0  0
   -2.7517    1.6099    1.2187 H   0  0  0  0  0  0  0  0  0  0  0  0
    1.6949    0.5674    1.8773 H   0  0  0  0  0  0  0  0  0  0  0  0
    2.4789    2.4099    0.5431 H   0  0  0  0  0  0  0  0  0  0  0  0
    2.4960    1.3328   -0.9842 H   0  0  0  0  0  0  0  0  0  0  0  0
  1  3  1  0
  1  2  1  0
  2  4  1  0
  3  4  1  0
  3 10  1  0
  3  5  1  0
  4 11  1  0
  4  6  1  0
  5  7  1  0
  5 12  1  0
  5 13  1  0
  6 14  1  0
  6  8  1  0
  6 15  1  0
  7 16  1  0
  7 17  1  0
  7 18  1  0
  8  9  2  3
  8 19  1  0
  9 21  1  0
  9 20  1  0
M  END
