
     RDKit          3D

 23 23  0  0  0  0  0  0  0  0999 V2000
    2.0417   -0.5653   -0.3481 O   0  0  0  0  0  0  0  0  0  0  0  0
    2.8447   -1.3979    0.3419 O   0  0  0  0  0  0  0  0  0  0  0  0
    3.9626   -0.8157    0.6763 O   0  0  0  0  0  0  0  0  0  0  0  0
    4.6106   -0.3868   -0.3898 O   0  0  0  0  0  0  0  0  0  0  0  0
   -2.2285   -0.2878   -0.2933 C   0  0  0  0  0  0  0  0  0  0  0  0
   -1.1148   -1.2988   -0.3104 C   0  0  0  0  0  0  0  0  0  0  0  0
   -1.8399    1.0436   -0.8663 C   0  0  0  0  0  0  0  0  0  0  0  0
   -0.0943   -1.0998    0.7721 C   0  0  0  0  0  0  0  0  0  0  0  0
   -0.8191    1.7589   -0.0274 C   0  0  0  0  0  0  0  0  0  0  0  0
    0.8826   -0.0894    0.2519 C   0  0  0  0  0  0  0  0  0  0  0  0
    0.4919    1.0788   -0.2616 C   0  0  0  0  0  0  0  0  0  0  0  0
   -1.5940   -2.2923   -0.1229 H   0  0  0  0  0  0  0  0  0  0  0  0
   -0.6201   -1.3110   -1.2996 H   0  0  0  0  0  0  0  0  0  0  0  0
   -2.6380   -0.2318    0.7283 H   0  0  0  0  0  0  0  0  0  0  0  0
   -3.0205   -0.6907   -0.9773 H   0  0  0  0  0  0  0  0  0  0  0  0
   -2.7617    1.6791   -0.8471 H   0  0  0  0  0  0  0  0  0  0  0  0
   -1.5601    0.9107   -1.9171 H   0  0  0  0  0  0  0  0  0  0  0  0
    0.3861   -2.0120    1.1318 H   0  0  0  0  0  0  0  0  0  0  0  0
   -0.6008   -0.5963    1.6299 H   0  0  0  0  0  0  0  0  0  0  0  0
   -0.7785    2.8393   -0.1787 H   0  0  0  0  0  0  0  0  0  0  0  0
   -1.1034    1.5334    1.0304 H   0  0  0  0  0  0  0  0  0  0  0  0
    1.2097    1.7107   -0.7405 H   0  0  0  0  0  0  0  0  0  0  0  0
    4.3437    0.5212   -0.6393 H   0  0  0  0  0  0  0  0  0  0  0  0
  1  2  1  0
  1 10  1  0
  2  3  1  0
  3  4  1  0
  4 23  1  0
  5  7  1  0
  5 14  1  0
  5 15  1  0
  5  6  1  0
  6 13  1  0
  6  8  1  0
  6 12  1  0
  7  9  1  0
  7 16  1  0
  7 17  1  0
  8 19  1  0
  8 18  1  0
  8 10  1  0
  9 11  1  0
  9 21  1  0
  9 20  1  0
 10 11  2  0
 11 22  1  0
M  END
