
     RDKit          3D

 21 21  0  0  0  0  0  0  0  0999 V2000
    0.0054   -1.1783   -0.5541 O   0  0  0  0  0  0  0  0  0  0  0  0
    3.9695   -0.3371   -1.1857 O   0  0  0  0  0  0  0  0  0  0  0  0
    0.6586   -0.1735    0.0985 C   0  0  0  0  0  0  0  0  0  0  0  0
   -0.1768    1.0022    0.4972 C   0  0  0  0  0  0  0  0  0  0  0  0
   -1.5426    0.6439    1.0008 C   0  0  0  0  0  0  0  0  0  0  0  0
   -2.1699   -0.2457   -0.0487 C   0  0  0  0  0  0  0  0  0  0  0  0
    1.7198    0.3566   -0.8614 C   0  0  0  0  0  0  0  0  0  0  0  0
   -1.2787   -1.4448   -0.1920 C   0  0  0  0  0  0  0  0  0  0  0  0
    3.0912    0.0332   -0.4145 C   0  0  0  0  0  0  0  0  0  0  0  0
    1.1931   -0.5095    1.0233 H   0  0  0  0  0  0  0  0  0  0  0  0
   -1.4323    0.0839    1.9380 H   0  0  0  0  0  0  0  0  0  0  0  0
   -2.1100    1.5830    1.0843 H   0  0  0  0  0  0  0  0  0  0  0  0
   -0.2853    1.6422   -0.4091 H   0  0  0  0  0  0  0  0  0  0  0  0
    0.3710    1.6003    1.2336 H   0  0  0  0  0  0  0  0  0  0  0  0
   -3.1576   -0.5896    0.2979 H   0  0  0  0  0  0  0  0  0  0  0  0
   -2.2962    0.3049   -0.9912 H   0  0  0  0  0  0  0  0  0  0  0  0
    1.6661    1.4535   -0.9847 H   0  0  0  0  0  0  0  0  0  0  0  0
    1.5930   -0.0649   -1.8868 H   0  0  0  0  0  0  0  0  0  0  0  0
   -1.3933   -2.0639    0.7240 H   0  0  0  0  0  0  0  0  0  0  0  0
   -1.7302   -2.0680   -1.0069 H   0  0  0  0  0  0  0  0  0  0  0  0
    3.3052   -0.0285    0.6374 H   0  0  0  0  0  0  0  0  0  0  0  0
  1  3  1  0
  1  8  1  0
  2  9  2  0
  3  7  1  0
  3 10  1  0
  3  4  1  0
  4 14  1  0
  4 13  1  0
  4  5  1  0
  5 11  1  0
  5  6  1  0
  5 12  1  0
  6  8  1  0
  6 15  1  0
  6 16  1  0
  7 18  1  0
  7 17  1  0
  7  9  1  0
  8 19  1  0
  8 20  1  0
  9 21  1  0
M  END
