
     RDKit          3D

 21 21  0  0  0  0  0  0  0  0999 V2000
    0.1473   -0.9640   -0.6668 O   0  0  0  0  0  0  0  0  0  0  0  0
    3.4947   -0.8508   -1.5207 O   0  0  0  0  0  0  0  0  0  0  0  0
    0.6380    0.1208    0.1062 C   0  0  0  0  0  0  0  0  0  0  0  0
   -0.4024    1.2580    0.1500 C   0  0  0  0  0  0  0  0  0  0  0  0
   -1.7229    0.7372    0.7219 C   0  0  0  0  0  0  0  0  0  0  0  0
   -2.1514   -0.5378   -0.0063 C   0  0  0  0  0  0  0  0  0  0  0  0
    1.9463    0.6288   -0.5145 C   0  0  0  0  0  0  0  0  0  0  0  0
   -0.9883   -1.5360   -0.0437 C   0  0  0  0  0  0  0  0  0  0  0  0
    3.0022   -0.4368   -0.4835 C   0  0  0  0  0  0  0  0  0  0  0  0
    0.8625   -0.2080    1.1493 H   0  0  0  0  0  0  0  0  0  0  0  0
   -1.5972    0.5202    1.8057 H   0  0  0  0  0  0  0  0  0  0  0  0
   -2.5107    1.5134    0.6139 H   0  0  0  0  0  0  0  0  0  0  0  0
   -0.5781    1.6498   -0.8765 H   0  0  0  0  0  0  0  0  0  0  0  0
   -0.0323    2.0916    0.7858 H   0  0  0  0  0  0  0  0  0  0  0  0
   -3.0206   -0.9928    0.5155 H   0  0  0  0  0  0  0  0  0  0  0  0
   -2.4569   -0.2883   -1.0461 H   0  0  0  0  0  0  0  0  0  0  0  0
    2.3199    1.5046    0.0588 H   0  0  0  0  0  0  0  0  0  0  0  0
    1.7643    0.9527   -1.5635 H   0  0  0  0  0  0  0  0  0  0  0  0
   -0.7458   -1.8978    0.9817 H   0  0  0  0  0  0  0  0  0  0  0  0
   -1.3027   -2.4223   -0.6339 H   0  0  0  0  0  0  0  0  0  0  0  0
    3.3343   -0.8426    0.4667 H   0  0  0  0  0  0  0  0  0  0  0  0
  1  3  1  0
  1  8  1  0
  2  9  2  0
  3  7  1  0
  3 10  1  0
  3  4  1  0
  4 14  1  0
  4 13  1  0
  4  5  1  0
  5 11  1  0
  5  6  1  0
  5 12  1  0
  6  8  1  0
  6 15  1  0
  6 16  1  0
  7 18  1  0
  7 17  1  0
  7  9  1  0
  8 19  1  0
  8 20  1  0
  9 21  1  0
M  END
