
     RDKit          3D

 20 20  0  0  0  0  0  0  0  0999 V2000
   -1.8198    1.1046    0.3955 C   0  0  0  0  0  0  0  0  0  0  0  0
   -0.6729   -1.6172    0.0457 C   0  0  0  0  0  0  0  0  0  0  0  0
   -0.4827    0.8833   -0.2069 C   0  0  0  0  0  0  0  0  0  0  0  0
    0.1731   -0.4079    0.0085 C   0  0  0  0  0  0  0  0  0  0  0  0
   -2.0763   -1.2398   -0.3211 C   0  0  0  0  0  0  0  0  0  0  0  0
   -2.6384   -0.1028    0.1099 C   0  0  0  0  0  0  0  0  0  0  0  0
    0.2620    1.8987   -0.6299 C   0  0  0  0  0  0  0  0  0  0  0  0
    4.0462   -0.3248    0.0262 C   0  0  0  0  0  0  0  0  0  0  0  0
    1.4701   -0.5103   -0.1645 C   0  0  0  0  0  0  0  0  0  0  0  0
    2.7480   -0.5165    0.0265 C   0  0  0  0  0  0  0  0  0  0  0  0
   -0.6261   -2.1096    1.0481 H   0  0  0  0  0  0  0  0  0  0  0  0
   -1.6749    1.2496    1.4927 H   0  0  0  0  0  0  0  0  0  0  0  0
   -2.2961    1.9905   -0.0751 H   0  0  0  0  0  0  0  0  0  0  0  0
   -0.3479   -2.3901   -0.6951 H   0  0  0  0  0  0  0  0  0  0  0  0
   -2.7952   -2.0091   -0.6205 H   0  0  0  0  0  0  0  0  0  0  0  0
   -3.7212    0.0554    0.0752 H   0  0  0  0  0  0  0  0  0  0  0  0
    1.2610    1.9598   -0.1970 H   0  0  0  0  0  0  0  0  0  0  0  0
    0.1305    2.3655   -1.5953 H   0  0  0  0  0  0  0  0  0  0  0  0
    4.4647    0.6800    0.1174 H   0  0  0  0  0  0  0  0  0  0  0  0
    4.5961   -0.9592   -0.6718 H   0  0  0  0  0  0  0  0  0  0  0  0
  1 13  1  0
  1  3  1  0
  1  6  1  0
  1 12  1  0
  2 11  1  0
  2 14  1  0
  2  4  1  0
  2  5  1  0
  3  7  2  3
  3  4  1  0
  4  9  2  3
  5 15  1  0
  5  6  2  0
  6 16  1  0
  7 18  1  0
  7 17  1  0
  8 20  1  0
  8 19  1  0
  8 10  2  3
  9 10  2  3
M  END
