
     RDKit          3D

  8  8  0  0  0  0  0  0  0  0999 V2000
    0.1201   -0.0221   -0.0334 C   0  0  0  0  0  0  0  0  0  0  0  0
   -1.0037   -0.2712    0.8004 C   0  0  0  0  0  0  0  0  0  0  0  0
   -1.1136    0.6611   -0.2109 C   0  0  0  0  0  0  0  0  0  0  0  0
    1.3756   -0.2533   -0.3830 C   0  0  0  0  0  0  0  0  0  0  0  0
   -1.4490   -0.8055    1.6283 H   0  0  0  0  0  0  0  0  0  0  0  0
   -1.7073    1.3867   -0.7496 H   0  0  0  0  0  0  0  0  0  0  0  0
    1.9635   -0.9805    0.1604 H   0  0  0  0  0  0  0  0  0  0  0  0
    1.8144    0.2848   -1.2121 H   0  0  0  0  0  0  0  0  0  0  0  0
  1  3  1  0
  1  2  1  0
  1  4  2  3
  2  5  1  0
  2  3  2  0
  3  6  1  0
  4  8  1  0
  4  7  1  0
M  END
