
     RDKit          3D

 22 23  0  0  0  0  0  0  0  0999 V2000
   -0.2075    0.1466   -0.1396 C   0  0  0  0  0  0  0  0  0  0  0  0
    0.6865   -0.5167   -1.2264 C   0  0  0  0  0  0  0  0  0  0  0  0
   -1.4956    0.7333   -0.7745 C   0  0  0  0  0  0  0  0  0  0  0  0
   -0.7112   -0.8950    0.8956 C   0  0  0  0  0  0  0  0  0  0  0  0
    0.5765    1.2364    0.5801 C   0  0  0  0  0  0  0  0  0  0  0  0
   -2.6065    0.1554    0.0244 C   0  0  0  0  0  0  0  0  0  0  0  0
   -2.1860   -0.7208    0.9177 C   0  0  0  0  0  0  0  0  0  0  0  0
    2.0654   -0.8197   -0.7027 C   0  0  0  0  0  0  0  0  0  0  0  0
    2.6453   -0.0050    0.1832 C   0  0  0  0  0  0  0  0  0  0  0  0
    1.8989    1.1296    0.7570 C   0  0  0  0  0  0  0  0  0  0  0  0
    0.2179   -1.4469   -1.6151 H   0  0  0  0  0  0  0  0  0  0  0  0
    0.8031    0.1807   -2.0848 H   0  0  0  0  0  0  0  0  0  0  0  0
   -1.6259    0.4217   -1.8339 H   0  0  0  0  0  0  0  0  0  0  0  0
   -1.5354    1.8433   -0.7262 H   0  0  0  0  0  0  0  0  0  0  0  0
   -0.3025   -0.7205    1.9154 H   0  0  0  0  0  0  0  0  0  0  0  0
   -0.4784   -1.9401    0.5975 H   0  0  0  0  0  0  0  0  0  0  0  0
    2.6167   -1.6613   -1.1026 H   0  0  0  0  0  0  0  0  0  0  0  0
    0.0519    2.0623    1.0459 H   0  0  0  0  0  0  0  0  0  0  0  0
   -3.6532    0.3984   -0.1260 H   0  0  0  0  0  0  0  0  0  0  0  0
   -2.8525   -1.2682    1.5763 H   0  0  0  0  0  0  0  0  0  0  0  0
    2.4254    1.8693    1.3462 H   0  0  0  0  0  0  0  0  0  0  0  0
    3.6671   -0.1828    0.4925 H   0  0  0  0  0  0  0  0  0  0  0  0
  1  2  1  0
  1  4  1  0
  1  5  1  0
  1  3  1  0
  2  8  1  0
  2 11  1  0
  2 12  1  0
  3  6  1  0
  3 13  1  0
  3 14  1  0
  4 16  1  0
  4 15  1  0
  4  7  1  0
  5 10  2  0
  5 18  1  0
  6 19  1  0
  6  7  2  0
  7 20  1  0
  8 17  1  0
  8  9  2  0
  9 10  1  0
  9 22  1  0
 10 21  1  0
M  END
