
     RDKit          3D

 14 14  0  0  0  0  0  0  0  0999 V2000
    0.8272   -1.1660    0.9000 O   0  0  0  0  0  0  0  0  0  0  0  0
    0.3720   -0.4249   -0.1614 C   0  0  0  0  0  0  0  0  0  0  0  0
   -0.5832    0.6932    0.2839 C   0  0  0  0  0  0  0  0  0  0  0  0
   -1.9242    0.1227    0.7358 C   0  0  0  0  0  0  0  0  0  0  0  0
    1.6716    0.0608   -0.4902 C   0  0  0  0  0  0  0  0  0  0  0  0
    2.1389   -0.6928    0.5572 C   0  0  0  0  0  0  0  0  0  0  0  0
   -0.0496   -1.0672   -0.9681 H   0  0  0  0  0  0  0  0  0  0  0  0
   -0.7583    1.3860   -0.5679 H   0  0  0  0  0  0  0  0  0  0  0  0
   -0.1366    1.2755    1.1206 H   0  0  0  0  0  0  0  0  0  0  0  0
   -1.7829   -0.5541    1.6052 H   0  0  0  0  0  0  0  0  0  0  0  0
   -2.5982    0.9519    1.0377 H   0  0  0  0  0  0  0  0  0  0  0  0
   -2.4029   -0.4403   -0.0936 H   0  0  0  0  0  0  0  0  0  0  0  0
    2.1020    0.7166   -1.2351 H   0  0  0  0  0  0  0  0  0  0  0  0
    3.1243   -0.8614    0.9708 H   0  0  0  0  0  0  0  0  0  0  0  0
  1  6  1  0
  1  2  1  0
  2  7  1  0
  2  5  1  0
  2  3  1  0
  3  4  1  0
  3  9  1  0
  3  8  1  0
  4 12  1  0
  4 11  1  0
  4 10  1  0
  5  6  2  0
  5 13  1  0
  6 14  1  0
M  END
