
     RDKit          3D

 19 19  0  0  0  0  0  0  0  0999 V2000
    2.2766   -0.2301    0.7779 O   0  0  0  0  0  0  0  0  0  0  0  0
    3.1710   -0.6393   -0.0964 O   0  0  0  0  0  0  0  0  0  0  0  0
    1.0873    0.0339    0.0753 C   0  0  0  0  0  0  0  0  0  0  0  0
    0.3192   -1.1714   -0.2649 C   0  0  0  0  0  0  0  0  0  0  0  0
   -1.1075   -1.2302    0.1529 C   0  0  0  0  0  0  0  0  0  0  0  0
    0.3939    1.0957    0.8324 C   0  0  0  0  0  0  0  0  0  0  0  0
   -1.9649   -0.1998   -0.5120 C   0  0  0  0  0  0  0  0  0  0  0  0
   -0.6491    1.7813    0.3561 C   0  0  0  0  0  0  0  0  0  0  0  0
   -1.7898    1.1057   -0.2837 C   0  0  0  0  0  0  0  0  0  0  0  0
    1.4295    0.5221   -0.8735 H   0  0  0  0  0  0  0  0  0  0  0  0
    0.3803   -1.4054   -1.3589 H   0  0  0  0  0  0  0  0  0  0  0  0
    0.8178   -2.0506    0.2210 H   0  0  0  0  0  0  0  0  0  0  0  0
   -1.1368   -1.0093    1.2512 H   0  0  0  0  0  0  0  0  0  0  0  0
   -1.4963   -2.2484    0.0347 H   0  0  0  0  0  0  0  0  0  0  0  0
    0.9335    1.6047    1.6355 H   0  0  0  0  0  0  0  0  0  0  0  0
   -2.6301   -0.4993   -1.2984 H   0  0  0  0  0  0  0  0  0  0  0  0
   -0.8967    2.7389    0.8160 H   0  0  0  0  0  0  0  0  0  0  0  0
   -2.5588    1.7506   -0.7111 H   0  0  0  0  0  0  0  0  0  0  0  0
    3.4209    0.0512   -0.7541 H   0  0  0  0  0  0  0  0  0  0  0  0
  1  2  1  0
  1  3  1  0
  2 19  1  0
  3  6  1  0
  3  4  1  0
  3 10  1  0
  4 12  1  0
  4  5  1  0
  4 11  1  0
  5  7  1  0
  5 14  1  0
  5 13  1  0
  6  8  2  0
  6 15  1  0
  7  9  2  0
  7 16  1  0
  8  9  1  0
  8 17  1  0
  9 18  1  0
M  END
