
     RDKit          3D

 19 20  0  0  0  0  0  0  0  0999 V2000
    0.5863   -0.1800    0.0140 C   0  0  0  0  0  0  0  0  0  0  0  0
    0.0495    1.1944   -0.2137 C   0  0  0  0  0  0  0  0  0  0  0  0
   -0.5946   -1.0498    0.3402 C   0  0  0  0  0  0  0  0  0  0  0  0
    1.6863   -0.7652   -0.7677 C   0  0  0  0  0  0  0  0  0  0  0  0
    1.8877   -0.3160    0.6789 C   0  0  0  0  0  0  0  0  0  0  0  0
   -1.4379    1.0423   -0.5180 C   0  0  0  0  0  0  0  0  0  0  0  0
   -1.7837   -0.1059    0.3952 C   0  0  0  0  0  0  0  0  0  0  0  0
    0.5759    1.7848   -0.9742 H   0  0  0  0  0  0  0  0  0  0  0  0
    0.0883    1.7338    0.7663 H   0  0  0  0  0  0  0  0  0  0  0  0
   -1.9579    1.9671   -0.1602 H   0  0  0  0  0  0  0  0  0  0  0  0
   -1.6244    0.8341   -1.5805 H   0  0  0  0  0  0  0  0  0  0  0  0
   -0.7807   -1.7209   -0.5305 H   0  0  0  0  0  0  0  0  0  0  0  0
   -0.4747   -1.5922    1.2919 H   0  0  0  0  0  0  0  0  0  0  0  0
    2.1322   -0.1751   -1.5810 H   0  0  0  0  0  0  0  0  0  0  0  0
    1.6715   -1.8750   -0.9024 H   0  0  0  0  0  0  0  0  0  0  0  0
   -2.7333   -0.6086    0.1373 H   0  0  0  0  0  0  0  0  0  0  0  0
    2.5154    0.6014    0.7613 H   0  0  0  0  0  0  0  0  0  0  0  0
    2.1127   -1.0848    1.4358 H   0  0  0  0  0  0  0  0  0  0  0  0
   -1.9183    0.3155    1.4072 H   0  0  0  0  0  0  0  0  0  0  0  0
  1  2  1  0
  1  3  1  0
  1  4  1  0
  1  5  1  0
  2  8  1  0
  2  9  1  0
  2  6  1  0
  3 13  1  0
  3  7  1  0
  3 12  1  0
  4 14  1  0
  4 15  1  0
  4  5  1  0
  5 18  1  0
  5 17  1  0
  6 10  1  0
  6  7  1  0
  6 11  1  0
  7 19  1  0
  7 16  1  0
M  END
