
     RDKit          3D

 17 17  0  0  0  0  0  0  0  0999 V2000
   -0.9580    1.0034   -0.5620 C   0  0  0  0  0  0  0  0  0  0  0  0
   -1.5742   -0.2451    0.0813 C   0  0  0  0  0  0  0  0  0  0  0  0
    1.5735   -0.4055   -0.3172 C   0  0  0  0  0  0  0  0  0  0  0  0
   -0.6619   -1.4327    0.3347 C   0  0  0  0  0  0  0  0  0  0  0  0
    0.1726    1.5559    0.2597 C   0  0  0  0  0  0  0  0  0  0  0  0
    1.3326    0.9005    0.3835 C   0  0  0  0  0  0  0  0  0  0  0  0
    0.6802   -1.4968    0.2080 C   0  0  0  0  0  0  0  0  0  0  0  0
   -1.7484    1.7809   -0.6377 H   0  0  0  0  0  0  0  0  0  0  0  0
   -0.6230    0.7831   -1.5980 H   0  0  0  0  0  0  0  0  0  0  0  0
   -2.0343    0.0442    1.0508 H   0  0  0  0  0  0  0  0  0  0  0  0
   -2.3996   -0.5909   -0.5770 H   0  0  0  0  0  0  0  0  0  0  0  0
    1.4265   -0.2902   -1.4117 H   0  0  0  0  0  0  0  0  0  0  0  0
    2.6316   -0.7056   -0.1607 H   0  0  0  0  0  0  0  0  0  0  0  0
    0.0479    2.5136    0.7565 H   0  0  0  0  0  0  0  0  0  0  0  0
   -1.1562   -2.3204    0.7193 H   0  0  0  0  0  0  0  0  0  0  0  0
    1.1639   -2.4289    0.4870 H   0  0  0  0  0  0  0  0  0  0  0  0
    2.1269    1.3345    0.9836 H   0  0  0  0  0  0  0  0  0  0  0  0
  1  8  1  0
  1  9  1  0
  1  2  1  0
  1  5  1  0
  2  4  1  0
  2 11  1  0
  2 10  1  0
  3 12  1  0
  3  7  1  0
  3  6  1  0
  3 13  1  0
  4  7  2  0
  4 15  1  0
  5  6  2  0
  5 14  1  0
  6 17  1  0
  7 16  1  0
M  END
