
     RDKit          3D

 21 21  0  0  0  0  0  0  0  0999 V2000
    2.5770    0.3493    0.7219 O   0  0  0  0  0  0  0  0  0  0  0  0
    3.3667   -0.7330    0.7424 O   0  0  0  0  0  0  0  0  0  0  0  0
   -1.7065   -0.7491   -0.3766 C   0  0  0  0  0  0  0  0  0  0  0  0
   -0.4173   -1.4765    0.0298 C   0  0  0  0  0  0  0  0  0  0  0  0
   -1.7900    0.6866    0.1592 C   0  0  0  0  0  0  0  0  0  0  0  0
    0.8346   -0.8871   -0.6363 C   0  0  0  0  0  0  0  0  0  0  0  0
   -0.7555    1.6215   -0.4821 C   0  0  0  0  0  0  0  0  0  0  0  0
    1.3303    0.3464    0.0877 C   0  0  0  0  0  0  0  0  0  0  0  0
    0.6026    1.4695    0.1447 C   0  0  0  0  0  0  0  0  0  0  0  0
   -0.5134   -2.5370   -0.2902 H   0  0  0  0  0  0  0  0  0  0  0  0
   -0.3066   -1.4782    1.1368 H   0  0  0  0  0  0  0  0  0  0  0  0
   -2.5677   -1.3200    0.0336 H   0  0  0  0  0  0  0  0  0  0  0  0
   -1.8136   -0.7505   -1.4836 H   0  0  0  0  0  0  0  0  0  0  0  0
   -1.6877    0.6919    1.2671 H   0  0  0  0  0  0  0  0  0  0  0  0
   -2.8033    1.0781   -0.0776 H   0  0  0  0  0  0  0  0  0  0  0  0
    1.6208   -1.6698   -0.6369 H   0  0  0  0  0  0  0  0  0  0  0  0
    0.6374   -0.6476   -1.7038 H   0  0  0  0  0  0  0  0  0  0  0  0
   -1.0902    2.6700   -0.3271 H   0  0  0  0  0  0  0  0  0  0  0  0
   -0.6952    1.4570   -1.5798 H   0  0  0  0  0  0  0  0  0  0  0  0
    1.0106    2.3248    0.6705 H   0  0  0  0  0  0  0  0  0  0  0  0
    4.1670   -0.4466    1.2504 H   0  0  0  0  0  0  0  0  0  0  0  0
  1  8  1  0
  1  2  1  0
  2 21  1  0
  3  4  1  0
  3 12  1  0
  3  5  1  0
  3 13  1  0
  4  6  1  0
  4 10  1  0
  4 11  1  0
  5  7  1  0
  5 15  1  0
  5 14  1  0
  6 17  1  0
  6  8  1  0
  6 16  1  0
  7 19  1  0
  7 18  1  0
  7  9  1  0
  8  9  2  0
  9 20  1  0
M  END
