
     RDKit          3D

 20 20  0  0  0  0  0  0  0  0999 V2000
   -1.5626   -1.5491    0.3300 C   0  0  0  0  0  0  0  0  0  0  0  0
    0.2434    0.1384   -0.1588 C   0  0  0  0  0  0  0  0  0  0  0  0
   -0.8152    1.1745   -0.3522 C   0  0  0  0  0  0  0  0  0  0  0  0
   -0.1272   -1.1180    0.1627 C   0  0  0  0  0  0  0  0  0  0  0  0
   -2.5743   -0.4901   -0.0118 C   0  0  0  0  0  0  0  0  0  0  0  0
   -2.2307    0.7587   -0.3225 C   0  0  0  0  0  0  0  0  0  0  0  0
    1.6822    0.4625   -0.3714 C   0  0  0  0  0  0  0  0  0  0  0  0
   -0.5356    2.4761   -0.5032 C   0  0  0  0  0  0  0  0  0  0  0  0
    3.6144   -0.9741    0.6383 C   0  0  0  0  0  0  0  0  0  0  0  0
    2.6504   -0.2574    0.1344 C   0  0  0  0  0  0  0  0  0  0  0  0
   -1.7209   -1.8731    1.3799 H   0  0  0  0  0  0  0  0  0  0  0  0
   -1.7411   -2.4224   -0.3319 H   0  0  0  0  0  0  0  0  0  0  0  0
    0.6204   -1.8901    0.2981 H   0  0  0  0  0  0  0  0  0  0  0  0
   -3.6242   -0.7538    0.0181 H   0  0  0  0  0  0  0  0  0  0  0  0
   -3.0140    1.4776   -0.5345 H   0  0  0  0  0  0  0  0  0  0  0  0
    1.9641    1.3189   -0.9664 H   0  0  0  0  0  0  0  0  0  0  0  0
    0.4721    2.8621   -0.4749 H   0  0  0  0  0  0  0  0  0  0  0  0
   -1.3296    3.2026   -0.6284 H   0  0  0  0  0  0  0  0  0  0  0  0
    4.6400   -0.6453    0.5417 H   0  0  0  0  0  0  0  0  0  0  0  0
    3.3883   -1.8979    1.1529 H   0  0  0  0  0  0  0  0  0  0  0  0
  1 11  1  0
  1  5  1  0
  1  4  1  0
  1 12  1  0
  2  3  1  0
  2  7  1  0
  2  4  2  0
  3  6  1  0
  3  8  2  3
  4 13  1  0
  5 14  1  0
  5  6  2  0
  6 15  1  0
  7 10  2  3
  7 16  1  0
  8 18  1  0
  8 17  1  0
  9 20  1  0
  9 10  2  3
  9 19  1  0
M  END
