
     RDKit          3D

 30 31  0  0  0  0  0  0  0  0999 V2000
   -1.2224   -0.5774   -0.0598 C   0  0  0  0  0  0  0  0  0  0  0  0
    0.2825   -0.6262   -0.4251 C   0  0  0  0  0  0  0  0  0  0  0  0
   -1.1537   -2.0543    0.3542 C   0  0  0  0  0  0  0  0  0  0  0  0
    1.2232    0.2885    0.3892 C   0  0  0  0  0  0  0  0  0  0  0  0
    0.3299   -2.0949    0.0047 C   0  0  0  0  0  0  0  0  0  0  0  0
    2.6843    0.1031   -0.0383 C   0  0  0  0  0  0  0  0  0  0  0  0
   -2.1439   -0.3396   -1.2839 C   0  0  0  0  0  0  0  0  0  0  0  0
    3.6105    1.0204    0.7546 C   0  0  0  0  0  0  0  0  0  0  0  0
   -1.5797    0.3483    1.0924 C   0  0  0  0  0  0  0  0  0  0  0  0
   -2.3212    1.1325   -1.5466 C   0  0  0  0  0  0  0  0  0  0  0  0
   -2.0667    1.5696    0.8474 C   0  0  0  0  0  0  0  0  0  0  0  0
   -2.3389    2.0081   -0.5353 C   0  0  0  0  0  0  0  0  0  0  0  0
    0.4621   -0.5178   -1.5189 H   0  0  0  0  0  0  0  0  0  0  0  0
    2.9961   -0.9507    0.1273 H   0  0  0  0  0  0  0  0  0  0  0  0
    2.7902    0.3346   -1.1206 H   0  0  0  0  0  0  0  0  0  0  0  0
    1.1268    0.0778    1.4774 H   0  0  0  0  0  0  0  0  0  0  0  0
    0.9294    1.3458    0.2101 H   0  0  0  0  0  0  0  0  0  0  0  0
    0.5450   -2.7770   -0.8467 H   0  0  0  0  0  0  0  0  0  0  0  0
    0.9631   -2.2903    0.8981 H   0  0  0  0  0  0  0  0  0  0  0  0
   -1.7497   -2.7325   -0.2958 H   0  0  0  0  0  0  0  0  0  0  0  0
   -1.3301   -2.2346    1.4377 H   0  0  0  0  0  0  0  0  0  0  0  0
   -3.1472   -0.7688   -1.0719 H   0  0  0  0  0  0  0  0  0  0  0  0
   -1.7520   -0.8416   -2.1950 H   0  0  0  0  0  0  0  0  0  0  0  0
    3.3375    2.0839    0.5860 H   0  0  0  0  0  0  0  0  0  0  0  0
    3.5435    0.7917    1.8396 H   0  0  0  0  0  0  0  0  0  0  0  0
    4.6591    0.8662    0.4234 H   0  0  0  0  0  0  0  0  0  0  0  0
   -1.3742    0.0563    2.1153 H   0  0  0  0  0  0  0  0  0  0  0  0
   -2.5085    1.4745   -2.5565 H   0  0  0  0  0  0  0  0  0  0  0  0
   -2.2468    2.2523    1.6676 H   0  0  0  0  0  0  0  0  0  0  0  0
   -2.5480    3.0520   -0.7305 H   0  0  0  0  0  0  0  0  0  0  0  0
  1  3  1  0
  1  9  1  0
  1  2  1  0
  1  7  1  0
  2 13  1  0
  2  4  1  0
  2  5  1  0
  3 20  1  0
  3  5  1  0
  3 21  1  0
  4 17  1  0
  4 16  1  0
  4  6  1  0
  5 18  1  0
  5 19  1  0
  6  8  1  0
  6 15  1  0
  6 14  1  0
  7 23  1  0
  7 22  1  0
  7 10  1  0
  8 25  1  0
  8 26  1  0
  8 24  1  0
  9 27  1  0
  9 11  2  0
 10 12  2  0
 10 28  1  0
 11 29  1  0
 11 12  1  0
 12 30  1  0
M  END
