
     RDKit          3D

 12 12  0  0  0  0  0  0  0  0999 V2000
   -0.8875   -0.6865    0.0103 C   0  0  0  0  0  0  0  0  0  0  0  0
   -0.9947    0.8087    0.0325 C   0  0  0  0  0  0  0  0  0  0  0  0
    0.5355   -1.0791   -0.2408 C   0  0  0  0  0  0  0  0  0  0  0  0
    0.0851    1.5610   -0.0728 C   0  0  0  0  0  0  0  0  0  0  0  0
    1.4512   -0.4148    0.4610 C   0  0  0  0  0  0  0  0  0  0  0  0
    1.3225    1.0702    0.5796 C   0  0  0  0  0  2  0  0  0  0  0  0
   -1.5177   -1.1222   -0.7790 H   0  0  0  0  0  0  0  0  0  0  0  0
   -1.2523   -1.0559    0.9809 H   0  0  0  0  0  0  0  0  0  0  0  0
   -1.9915    1.2192   -0.0013 H   0  0  0  0  0  0  0  0  0  0  0  0
    0.7933   -1.9081   -0.9080 H   0  0  0  0  0  0  0  0  0  0  0  0
    0.0333    2.4792   -0.6629 H   0  0  0  0  0  0  0  0  0  0  0  0
    2.4229   -0.8715    0.6004 H   0  0  0  0  0  0  0  0  0  0  0  0
  1  3  1  0
  1  2  1  0
  1  7  1  0
  1  8  1  0
  2  9  1  0
  2  4  2  0
  3  5  2  0
  3 10  1  0
  4 11  1  0
  4  6  1  0
  5 12  1  0
  5  6  1  0
M  RAD  1   6   3
M  END
