
     RDKit          3D

 17 17  0  0  0  0  0  0  0  0999 V2000
   -1.3510    0.0237    0.7094 C   0  0  0  0  0  0  0  0  0  0  0  0
   -2.5604    0.3300   -0.1595 C   0  0  0  0  0  0  0  0  0  0  0  0
   -1.9497   -1.0604   -0.1756 C   0  0  0  0  0  0  0  0  0  0  0  0
    2.3687    0.4295   -0.2545 C   0  0  0  0  0  0  0  0  0  0  0  0
   -0.0527    0.5843    0.2035 C   0  0  0  0  0  0  0  0  0  0  0  0
    1.0710   -0.1434    0.2366 C   0  0  0  0  0  0  0  0  0  0  0  0
    3.4861   -0.5897   -0.1140 C   0  0  0  0  0  2  0  0  0  0  0  0
   -1.5277   -0.1049    1.7984 H   0  0  0  0  0  0  0  0  0  0  0  0
   -3.5198    0.3947    0.3959 H   0  0  0  0  0  0  0  0  0  0  0  0
   -2.3642    0.9184   -1.0819 H   0  0  0  0  0  0  0  0  0  0  0  0
   -2.5509   -1.8203    0.3670 H   0  0  0  0  0  0  0  0  0  0  0  0
   -1.3962   -1.2949   -1.1107 H   0  0  0  0  0  0  0  0  0  0  0  0
    2.6254    1.3329    0.3392 H   0  0  0  0  0  0  0  0  0  0  0  0
    2.2693    0.7130   -1.3243 H   0  0  0  0  0  0  0  0  0  0  0  0
   -0.0288    1.6070   -0.1636 H   0  0  0  0  0  0  0  0  0  0  0  0
    1.0385   -1.1603    0.6223 H   0  0  0  0  0  0  0  0  0  0  0  0
    4.4425   -0.1597   -0.4790 H   0  0  0  0  0  0  0  0  0  0  0  0
  1  2  1  0
  1  8  1  0
  1  3  1  0
  1  5  1  0
  2  3  1  0
  2  9  1  0
  2 10  1  0
  3 12  1  0
  3 11  1  0
  4  7  1  0
  4 13  1  0
  4  6  1  0
  4 14  1  0
  5 15  1  0
  5  6  2  3
  6 16  1  0
  7 17  1  0
M  RAD  1   7   3
M  END
