
     RDKit          3D

 17 17  0  0  0  0  0  0  0  0999 V2000
   -1.1980    0.2976    0.4692 C   0  0  0  0  0  0  0  0  0  0  0  0
   -2.5666    0.1553   -0.0508 C   0  0  0  0  0  0  0  0  0  0  0  0
   -1.7705   -1.0787    0.1107 C   0  0  0  0  0  0  0  0  0  0  0  0
    2.2778    0.4730    0.0972 C   0  0  0  0  0  0  0  0  0  0  0  0
   -0.0496    0.6761   -0.3772 C   0  0  0  0  0  0  0  0  0  0  0  0
    0.9992   -0.1571   -0.3687 C   0  0  0  0  0  0  0  0  0  0  0  0
    3.3616   -0.5640    0.0111 C   0  0  0  0  0  2  0  0  0  0  0  0
   -1.0531    0.4782    1.5446 H   0  0  0  0  0  0  0  0  0  0  0  0
   -3.3987    0.3802    0.6588 H   0  0  0  0  0  0  0  0  0  0  0  0
   -2.8132    0.4539   -1.0853 H   0  0  0  0  0  0  0  0  0  0  0  0
   -1.9138   -1.7749    0.9619 H   0  0  0  0  0  0  0  0  0  0  0  0
   -1.4116   -1.5784   -0.7988 H   0  0  0  0  0  0  0  0  0  0  0  0
    2.1098    0.8381    1.1329 H   0  0  0  0  0  0  0  0  0  0  0  0
    2.4465    1.3354   -0.5874 H   0  0  0  0  0  0  0  0  0  0  0  0
    0.0051    1.5245   -1.0291 H   0  0  0  0  0  0  0  0  0  0  0  0
    0.8683   -1.2204   -0.1455 H   0  0  0  0  0  0  0  0  0  0  0  0
    4.1069   -0.2389   -0.7344 H   0  0  0  0  0  0  0  0  0  0  0  0
  1  2  1  0
  1  8  1  0
  1  3  1  0
  1  5  1  0
  2  3  1  0
  2  9  1  0
  2 10  1  0
  3 12  1  0
  3 11  1  0
  4  7  1  0
  4 13  1  0
  4  6  1  0
  4 14  1  0
  5 15  1  0
  5  6  2  3
  6 16  1  0
  7 17  1  0
M  RAD  1   7   3
M  END
