
     RDKit          3D

 17 17  0  0  0  0  0  0  0  0999 V2000
    1.2506   -0.5229   -0.3111 C   0  0  0  0  0  0  0  0  0  0  0  0
   -1.1025   -0.9116    0.7539 C   0  0  0  0  0  0  0  0  0  0  0  0
    2.3955    0.4255   -0.0843 C   0  0  0  0  0  0  0  0  0  0  0  0
   -0.0385   -0.0179    0.1961 C   0  0  0  0  0  0  0  0  0  0  0  0
   -2.2841   -0.4595   -0.0328 C   0  0  0  0  0  0  0  0  0  0  0  0
   -0.6779    1.0905   -0.1166 C   0  0  0  0  0  0  0  0  0  0  0  0
   -2.1273    0.8613   -0.1267 C   0  0  0  0  0  0  0  0  0  0  0  0
    1.5088   -1.4672    0.2316 H   0  0  0  0  0  0  0  0  0  0  0  0
    1.2247   -0.7927   -1.3929 H   0  0  0  0  0  0  0  0  0  0  0  0
   -0.8862   -1.9762    0.5842 H   0  0  0  0  0  0  0  0  0  0  0  0
   -1.3078   -0.6447    1.8022 H   0  0  0  0  0  0  0  0  0  0  0  0
    2.1626    1.4757   -0.3372 H   0  0  0  0  0  0  0  0  0  0  0  0
    2.8332    0.3639    0.9257 H   0  0  0  0  0  0  0  0  0  0  0  0
    3.2079    0.1061   -0.7852 H   0  0  0  0  0  0  0  0  0  0  0  0
   -3.0605   -1.0872   -0.4676 H   0  0  0  0  0  0  0  0  0  0  0  0
   -2.9242    1.5650   -0.3720 H   0  0  0  0  0  0  0  0  0  0  0  0
   -0.1743    1.9919   -0.4673 H   0  0  0  0  0  0  0  0  0  0  0  0
  1  3  1  0
  1  4  1  0
  1  8  1  0
  1  9  1  0
  2 10  1  0
  2  5  1  0
  2  4  1  0
  2 11  1  0
  3 12  1  0
  3 14  1  0
  3 13  1  0
  4  6  2  0
  5  7  2  0
  5 15  1  0
  6  7  1  0
  6 17  1  0
  7 16  1  0
M  END
