
     RDKit          3D

 19 20  0  0  0  0  0  0  0  0999 V2000
    2.0964   -1.3601   -0.4402 O   0  0  0  0  0  0  0  0  0  0  0  0
    2.6217   -0.1611   -0.1595 O   0  0  0  0  0  0  0  0  0  0  0  0
    0.9340   -1.1082    0.2943 C   0  0  0  0  0  0  0  0  0  0  0  0
    1.5191    0.2277    0.6068 C   0  0  0  0  0  0  0  0  0  0  0  0
   -0.3127   -1.1748   -0.6020 C   0  0  0  0  0  0  0  0  0  0  0  0
   -1.5481   -0.5765    0.0876 C   0  0  0  0  0  0  0  0  0  0  0  0
    0.8491    1.4742    0.0182 C   0  0  0  0  0  0  0  0  0  0  0  0
   -1.6435    0.9449   -0.0802 C   0  0  0  0  0  0  0  0  0  0  0  0
   -0.5258    1.6950    0.6448 C   0  0  0  0  0  2  0  0  0  0  0  0
    0.8729   -1.7734    1.1838 H   0  0  0  0  0  0  0  0  0  0  0  0
    1.7964    0.3400    1.6782 H   0  0  0  0  0  0  0  0  0  0  0  0
   -2.4547   -1.0242   -0.3748 H   0  0  0  0  0  0  0  0  0  0  0  0
   -1.5645   -0.8454    1.1670 H   0  0  0  0  0  0  0  0  0  0  0  0
   -0.1327   -0.6891   -1.5859 H   0  0  0  0  0  0  0  0  0  0  0  0
   -0.5143   -2.2478   -0.8106 H   0  0  0  0  0  0  0  0  0  0  0  0
   -1.6521    1.2170   -1.1581 H   0  0  0  0  0  0  0  0  0  0  0  0
   -2.6088    1.2833    0.3517 H   0  0  0  0  0  0  0  0  0  0  0  0
    1.4804    2.3519    0.2696 H   0  0  0  0  0  0  0  0  0  0  0  0
    0.7871    1.4265   -1.0908 H   0  0  0  0  0  0  0  0  0  0  0  0
  1  2  1  0
  1  3  1  0
  2  4  1  0
  3  4  1  0
  3  5  1  0
  3 10  1  0
  4  7  1  0
  4 11  1  0
  5  6  1  0
  5 15  1  0
  5 14  1  0
  6 13  1  0
  6  8  1  0
  6 12  1  0
  7 19  1  0
  7 18  1  0
  7  9  1  0
  8  9  1  0
  8 16  1  0
  8 17  1  0
M  RAD  1   9   3
M  END
