
     RDKit          3D

 20 21  0  0  0  0  0  0  0  0999 V2000
   -2.1036   -1.1791    0.1287 C   0  0  0  0  0  0  0  0  0  0  0  0
    2.6276   -1.1029   -0.0874 C   0  0  0  0  0  0  0  0  0  0  0  0
    1.6001   -0.0168   -0.0719 C   0  0  0  0  0  0  0  0  0  0  0  0
    0.1571   -0.1890   -0.0017 C   0  0  0  0  0  0  0  0  0  0  0  0
   -0.4091    1.1295   -0.0137 C   0  0  0  0  0  0  0  0  0  0  0  0
   -0.5892   -1.2896    0.0634 C   0  0  0  0  0  0  0  0  0  0  0  0
   -2.6462    0.2490    0.1125 C   0  0  0  0  0  0  0  0  0  0  0  0
    1.8429    1.2943   -0.1202 C   0  0  0  0  0  0  0  0  0  0  0  0
   -1.8545    1.3305    0.0459 C   0  0  0  0  0  0  0  0  0  0  0  0
    0.5647    2.0248   -0.0832 C   0  0  0  0  0  0  0  0  0  0  0  0
   -2.4515   -1.6761    1.0582 H   0  0  0  0  0  0  0  0  0  0  0  0
   -2.5326   -1.7272   -0.7359 H   0  0  0  0  0  0  0  0  0  0  0  0
    2.5412   -1.7071    0.8396 H   0  0  0  0  0  0  0  0  0  0  0  0
    2.4595   -1.7585   -0.9669 H   0  0  0  0  0  0  0  0  0  0  0  0
    3.6520   -0.6774   -0.1458 H   0  0  0  0  0  0  0  0  0  0  0  0
   -3.7187    0.3895    0.1570 H   0  0  0  0  0  0  0  0  0  0  0  0
   -0.1224   -2.2662    0.0701 H   0  0  0  0  0  0  0  0  0  0  0  0
   -2.2776    2.3271    0.0367 H   0  0  0  0  0  0  0  0  0  0  0  0
    0.4358    3.0988   -0.1080 H   0  0  0  0  0  0  0  0  0  0  0  0
    2.8244    1.7465   -0.1774 H   0  0  0  0  0  0  0  0  0  0  0  0
  1  6  1  0
  1  7  1  0
  1 12  1  0
  1 11  1  0
  2 14  1  0
  2  3  1  0
  2 15  1  0
  2 13  1  0
  3  4  1  0
  3  8  2  0
  4  6  2  0
  4  5  1  0
  5  9  1  0
  5 10  2  0
  6 17  1  0
  7  9  2  0
  7 16  1  0
  8 20  1  0
  8 10  1  0
  9 18  1  0
 10 19  1  0
M  END
