
     RDKit          3D

 20 21  0  0  0  0  0  0  0  0999 V2000
   -2.1049   -1.1192    0.0148 C   0  0  0  0  0  0  0  0  0  0  0  0
    2.5996   -1.0370    0.1876 C   0  0  0  0  0  0  0  0  0  0  0  0
    1.6093   -0.0676   -0.3729 C   0  0  0  0  0  0  0  0  0  0  0  0
    0.1525   -0.2042   -0.2773 C   0  0  0  0  0  0  0  0  0  0  0  0
   -0.4743    1.1223   -0.3065 C   0  0  0  0  0  0  0  0  0  0  0  0
   -0.6540   -1.2363   -0.2033 C   0  0  0  0  0  0  0  0  0  0  0  0
   -2.5360    0.2279    0.4318 C   0  0  0  0  0  0  0  0  0  0  0  0
    1.7865    1.2254   -0.6474 C   0  0  0  0  0  0  0  0  0  0  0  0
   -1.8140    1.3225    0.2614 C   0  0  0  0  0  0  0  0  0  0  0  0
    0.5536    1.9665   -0.4098 C   0  0  0  0  0  0  0  0  0  0  0  0
   -2.3968   -1.8144    0.8399 H   0  0  0  0  0  0  0  0  0  0  0  0
   -2.6989   -1.4466   -0.8664 H   0  0  0  0  0  0  0  0  0  0  0  0
    2.1624   -1.6456    1.0116 H   0  0  0  0  0  0  0  0  0  0  0  0
    2.9816   -1.7406   -0.5640 H   0  0  0  0  0  0  0  0  0  0  0  0
    3.4740   -0.5132    0.6482 H   0  0  0  0  0  0  0  0  0  0  0  0
   -3.5816    0.3614    0.6555 H   0  0  0  0  0  0  0  0  0  0  0  0
   -0.2145   -2.2146   -0.1925 H   0  0  0  0  0  0  0  0  0  0  0  0
   -2.0353    2.1382    0.9523 H   0  0  0  0  0  0  0  0  0  0  0  0
    0.4496    3.0356   -0.2153 H   0  0  0  0  0  0  0  0  0  0  0  0
    2.7412    1.6395   -0.9477 H   0  0  0  0  0  0  0  0  0  0  0  0
  1  6  1  0
  1  7  1  0
  1 12  1  0
  1 11  1  0
  2 14  1  0
  2  3  1  0
  2 15  1  0
  2 13  1  0
  3  4  1  0
  3  8  2  0
  4  6  2  0
  4  5  1  0
  5  9  1  0
  5 10  2  0
  6 17  1  0
  7  9  2  0
  7 16  1  0
  8 20  1  0
  8 10  1  0
  9 18  1  0
 10 19  1  0
M  END
