
     RDKit          3D

 23 23  0  0  0  0  0  0  0  0999 V2000
    2.1470   -0.4246   -0.9969 O   0  0  0  0  0  0  0  0  0  0  0  0
    3.1033   -0.9232   -0.2360 O   0  0  0  0  0  0  0  0  0  0  0  0
    3.4955    0.0721    0.5466 O   0  0  0  0  0  0  0  0  0  0  0  0
   -2.7410    1.7302    0.1860 O   0  0  0  0  0  0  0  0  0  0  0  0
    0.9792   -0.2000   -0.2991 C   0  0  0  0  0  0  0  0  0  0  0  0
    0.0171   -1.3440   -0.4157 C   0  0  0  0  0  0  0  0  0  0  0  0
    0.3409    1.0511   -0.8730 C   0  0  0  0  0  0  0  0  0  0  0  0
   -1.0178   -1.3606    0.6645 C   0  0  0  0  0  0  0  0  0  0  0  0
   -2.1562   -0.4154    0.4431 C   0  0  0  0  0  0  0  0  0  0  0  0
   -0.4541    1.6896    0.2281 C   0  0  0  0  0  0  0  0  0  0  0  0
   -1.7615    1.0023    0.3482 C   0  0  0  0  0  0  0  0  0  0  0  0
    1.2133   -0.0623    0.7829 H   0  0  0  0  0  0  0  0  0  0  0  0
   -1.4603   -2.3889    0.6749 H   0  0  0  0  0  0  0  0  0  0  0  0
   -0.5294   -1.2279    1.6383 H   0  0  0  0  0  0  0  0  0  0  0  0
   -0.4167   -1.3784   -1.4303 H   0  0  0  0  0  0  0  0  0  0  0  0
    0.6125   -2.2866   -0.3136 H   0  0  0  0  0  0  0  0  0  0  0  0
    1.1361    1.7264   -1.2518 H   0  0  0  0  0  0  0  0  0  0  0  0
   -0.3646    0.7620   -1.6885 H   0  0  0  0  0  0  0  0  0  0  0  0
   -2.8337   -0.5207    1.3279 H   0  0  0  0  0  0  0  0  0  0  0  0
   -2.7349   -0.6977   -0.4470 H   0  0  0  0  0  0  0  0  0  0  0  0
   -0.6165    2.7685   -0.0008 H   0  0  0  0  0  0  0  0  0  0  0  0
    0.1547    1.6603    1.1395 H   0  0  0  0  0  0  0  0  0  0  0  0
    3.8871    0.7677   -0.0273 H   0  0  0  0  0  0  0  0  0  0  0  0
  1  5  1  0
  1  2  1  0
  2  3  1  0
  3 23  1  0
  4 11  2  0
  5  7  1  0
  5  6  1  0
  5 12  1  0
  6 16  1  0
  6  8  1  0
  6 15  1  0
  7 17  1  0
  7 18  1  0
  7 10  1  0
  8 13  1  0
  8 14  1  0
  8  9  1  0
  9 11  1  0
  9 20  1  0
  9 19  1  0
 10 11  1  0
 10 22  1  0
 10 21  1  0
M  END
