
     RDKit          3D

 13 13  0  0  0  0  0  0  0  0999 V2000
    0.2074   -0.0706   -0.1041 C   0  0  0  0  0  0  0  0  0  0  0  0
   -0.6931    0.9073   -0.6915 C   0  0  0  0  0  0  0  0  0  0  0  0
   -0.5955   -0.9308    0.7490 C   0  0  0  0  0  0  0  0  0  0  0  0
   -1.9130    0.6360   -0.2480 C   0  0  0  0  0  0  0  0  0  0  0  0
   -1.8517   -0.5167    0.6554 C   0  0  0  0  0  0  0  0  0  0  0  0
    2.8095   -0.0563   -0.2622 C   0  0  0  0  0  0  0  0  0  0  0  0
    1.5094   -0.0634   -0.1832 C   0  0  0  0  0  0  0  0  0  0  0  0
   -0.4304    1.7171   -1.3599 H   0  0  0  0  0  0  0  0  0  0  0  0
   -2.8043    1.1927   -0.5049 H   0  0  0  0  0  0  0  0  0  0  0  0
   -2.6901   -0.9561    1.1792 H   0  0  0  0  0  0  0  0  0  0  0  0
   -0.2461   -1.7532    1.3598 H   0  0  0  0  0  0  0  0  0  0  0  0
    3.3880   -0.7897    0.2825 H   0  0  0  0  0  0  0  0  0  0  0  0
    3.3098    0.6835   -0.8720 H   0  0  0  0  0  0  0  0  0  0  0  0
  1  2  1  0
  1  3  1  0
  1  7  2  3
  2  8  1  0
  2  4  2  0
  3 11  1  0
  3  5  2  0
  4  5  1  0
  4  9  1  0
  5 10  1  0
  6 13  1  0
  6 12  1  0
  6  7  2  3
M  END
