
     RDKit          3D

 21 21  0  0  0  0  0  0  0  0999 V2000
    2.7177   -0.4197    0.0450 O   0  0  0  0  0  0  0  0  0  0  0  0
    1.8498    1.9943    0.7437 O   0  0  0  0  0  0  0  0  0  0  0  0
    0.5669   -1.3095    0.5881 C   0  0  0  0  0  0  0  0  0  0  0  0
   -0.8265   -1.6013    0.0119 C   0  0  0  0  0  0  0  0  0  0  0  0
    1.3478   -0.2593   -0.2230 C   0  0  0  0  0  0  0  0  0  0  0  0
   -1.8011   -0.4241    0.1458 C   0  0  0  0  0  0  0  0  0  0  0  0
   -1.4083    0.7735   -0.7288 C   0  0  0  0  0  0  0  0  0  0  0  0
    0.9169    1.1455    0.1432 C   0  0  0  0  0  0  0  0  0  0  0  0
   -0.3248    1.5983   -0.0931 C   0  0  0  0  0  0  0  0  0  0  0  0
   -0.7433   -1.9094   -1.0536 H   0  0  0  0  0  0  0  0  0  0  0  0
   -1.2539   -2.4650    0.5661 H   0  0  0  0  0  0  0  0  0  0  0  0
    0.4857   -1.0000    1.6539 H   0  0  0  0  0  0  0  0  0  0  0  0
    1.1365   -2.2648    0.5703 H   0  0  0  0  0  0  0  0  0  0  0  0
    1.1741   -0.4294   -1.3118 H   0  0  0  0  0  0  0  0  0  0  0  0
   -1.8917   -0.1171    1.2114 H   0  0  0  0  0  0  0  0  0  0  0  0
   -2.8042   -0.7758   -0.1799 H   0  0  0  0  0  0  0  0  0  0  0  0
   -2.3033    1.4203   -0.8558 H   0  0  0  0  0  0  0  0  0  0  0  0
   -1.0983    0.4428   -1.7437 H   0  0  0  0  0  0  0  0  0  0  0  0
   -0.5722    2.6162    0.1837 H   0  0  0  0  0  0  0  0  0  0  0  0
    3.2110    0.0395   -0.6847 H   0  0  0  0  0  0  0  0  0  0  0  0
    1.6210    2.9450    1.0111 H   0  0  0  0  0  0  0  0  0  0  0  0
  1 20  1  0
  1  5  1  0
  2  8  1  0
  2 21  1  0
  3 12  1  0
  3  4  1  0
  3  5  1  0
  3 13  1  0
  4 11  1  0
  4 10  1  0
  4  6  1  0
  5  8  1  0
  5 14  1  0
  6  7  1  0
  6 15  1  0
  6 16  1  0
  7 17  1  0
  7 18  1  0
  7  9  1  0
  8  9  2  0
  9 19  1  0
M  END
