
     RDKit          3D

 21 21  0  0  0  0  0  0  0  0999 V2000
   -0.1070    1.2566    0.5627 O   0  0  0  0  0  0  0  0  0  0  0  0
    4.1920   -0.0723   -0.2014 O   0  0  0  0  0  0  0  0  0  0  0  0
    0.4400    0.1451   -0.1268 C   0  0  0  0  0  0  0  0  0  0  0  0
   -0.3169   -1.1437    0.2446 C   0  0  0  0  0  0  0  0  0  0  0  0
   -1.8046   -0.9870   -0.0770 C   0  0  0  0  0  0  0  0  0  0  0  0
   -2.3451    0.3081    0.5315 C   0  0  0  0  0  0  0  0  0  0  0  0
   -1.4414    1.4855    0.1461 C   0  0  0  0  0  0  0  0  0  0  0  0
    1.8839    0.0063    0.2696 C   0  0  0  0  0  0  0  0  0  0  0  0
    2.8734    0.0594   -0.6210 C   0  0  0  0  0  0  0  0  0  0  0  0
   -1.9452   -0.9650   -1.1803 H   0  0  0  0  0  0  0  0  0  0  0  0
   -2.3693   -1.8550    0.3262 H   0  0  0  0  0  0  0  0  0  0  0  0
   -0.1994   -1.3538    1.3313 H   0  0  0  0  0  0  0  0  0  0  0  0
    0.0939   -2.0050   -0.3263 H   0  0  0  0  0  0  0  0  0  0  0  0
    0.3718    0.3029   -1.2302 H   0  0  0  0  0  0  0  0  0  0  0  0
   -2.3768    0.2146    1.6392 H   0  0  0  0  0  0  0  0  0  0  0  0
   -3.3780    0.4915    0.1650 H   0  0  0  0  0  0  0  0  0  0  0  0
   -1.4933    1.6800   -0.9496 H   0  0  0  0  0  0  0  0  0  0  0  0
   -1.8155    2.3986    0.6550 H   0  0  0  0  0  0  0  0  0  0  0  0
    2.1235   -0.1381    1.3168 H   0  0  0  0  0  0  0  0  0  0  0  0
    2.6649    0.2042   -1.6744 H   0  0  0  0  0  0  0  0  0  0  0  0
    4.9490   -0.0332   -0.8728 H   0  0  0  0  0  0  0  0  0  0  0  0
  1  3  1  0
  1  7  1  0
  2  9  1  0
  2 21  1  0
  3  4  1  0
  3 14  1  0
  3  8  1  0
  4 13  1  0
  4  5  1  0
  4 12  1  0
  5  6  1  0
  5 10  1  0
  5 11  1  0
  6  7  1  0
  6 15  1  0
  6 16  1  0
  7 17  1  0
  7 18  1  0
  8 19  1  0
  8  9  2  3
  9 20  1  0
M  END
