
     RDKit          3D

 21 21  0  0  0  0  0  0  0  0999 V2000
   -2.6612    0.0587    0.8430 O   0  0  0  0  0  0  0  0  0  0  0  0
    2.4244    1.6044    0.3447 O   0  0  0  0  0  0  0  0  0  0  0  0
   -1.3474    0.1146    0.4040 C   0  0  0  0  0  0  0  0  0  0  0  0
   -0.8586   -1.1904   -0.1454 C   0  0  0  0  0  0  0  0  0  0  0  0
    0.5614   -1.5177    0.1654 C   0  0  0  0  0  0  0  0  0  0  0  0
    1.5898   -0.5924   -0.3916 C   0  0  0  0  0  0  0  0  0  0  0  0
   -1.1212    1.1617   -0.6544 C   0  0  0  0  0  0  0  0  0  0  0  0
    1.3423    0.8438   -0.1213 C   0  0  0  0  0  0  0  0  0  0  0  0
    0.3130    1.5135   -0.6466 C   0  0  0  0  0  0  0  0  0  0  0  0
   -0.7165    0.4041    1.2823 H   0  0  0  0  0  0  0  0  0  0  0  0
    0.7583   -2.5169   -0.3033 H   0  0  0  0  0  0  0  0  0  0  0  0
    0.6833   -1.6249    1.2499 H   0  0  0  0  0  0  0  0  0  0  0  0
   -1.1147   -1.3109   -1.2280 H   0  0  0  0  0  0  0  0  0  0  0  0
   -1.4727   -1.9751    0.3689 H   0  0  0  0  0  0  0  0  0  0  0  0
    2.5438   -0.8367    0.1454 H   0  0  0  0  0  0  0  0  0  0  0  0
    1.8291   -0.7925   -1.4672 H   0  0  0  0  0  0  0  0  0  0  0  0
   -1.7487    2.0701   -0.4727 H   0  0  0  0  0  0  0  0  0  0  0  0
   -1.4710    0.7708   -1.6391 H   0  0  0  0  0  0  0  0  0  0  0  0
    0.5059    2.5640   -0.8755 H   0  0  0  0  0  0  0  0  0  0  0  0
   -2.6590   -0.2290    1.8007 H   0  0  0  0  0  0  0  0  0  0  0  0
    2.6197    1.4806    1.3408 H   0  0  0  0  0  0  0  0  0  0  0  0
  1  3  1  0
  1 20  1  0
  2 21  1  0
  2  8  1  0
  3  7  1  0
  3 10  1  0
  3  4  1  0
  4 13  1  0
  4  5  1  0
  4 14  1  0
  5 12  1  0
  5  6  1  0
  5 11  1  0
  6 16  1  0
  6  8  1  0
  6 15  1  0
  7  9  1  0
  7 17  1  0
  7 18  1  0
  8  9  2  0
  9 19  1  0
M  END
