
     RDKit          3D

 19 19  0  0  0  0  0  0  0  0999 V2000
    2.1106    0.7436   -1.1137 O   0  0  0  0  0  0  0  0  0  0  0  0
   -3.7830    1.2874   -0.1296 O   0  0  0  0  0  0  0  0  0  0  0  0
    1.5072    0.0697   -0.0123 C   0  0  0  0  0  0  0  0  0  0  0  0
    0.2506   -0.6787   -0.3448 C   0  0  0  0  0  0  0  0  0  0  0  0
   -0.8987    0.2958   -0.1136 C   0  0  0  0  0  0  0  0  0  0  0  0
   -2.2189   -0.3970    0.0363 C   0  0  0  0  0  0  0  0  0  0  0  0
    2.7685   -0.6812   -0.0917 C   0  0  0  0  0  0  0  0  0  0  0  0
    3.3583    0.4136   -0.5756 C   0  0  0  0  0  0  0  0  0  0  0  0
   -3.1707    0.5819    0.6579 C   0  0  0  0  0  0  0  0  0  0  0  0
   -0.6482    0.8543    0.8053 H   0  0  0  0  0  0  0  0  0  0  0  0
   -0.8739    0.9976   -0.9658 H   0  0  0  0  0  0  0  0  0  0  0  0
    0.0615   -1.5299    0.3266 H   0  0  0  0  0  0  0  0  0  0  0  0
    0.1903   -1.0026   -1.3913 H   0  0  0  0  0  0  0  0  0  0  0  0
    1.3941    0.7775    0.8216 H   0  0  0  0  0  0  0  0  0  0  0  0
   -2.1245   -1.2683    0.7013 H   0  0  0  0  0  0  0  0  0  0  0  0
   -2.5512   -0.7200   -0.9599 H   0  0  0  0  0  0  0  0  0  0  0  0
    3.1307   -1.7068   -0.0165 H   0  0  0  0  0  0  0  0  0  0  0  0
   -2.8394    1.0758    1.5730 H   0  0  0  0  0  0  0  0  0  0  0  0
    4.3368    0.8874   -0.4742 H   0  0  0  0  0  0  0  0  0  0  0  0
  1  8  1  0
  1  3  1  0
  2  9  2  0
  3 14  1  0
  3  7  1  0
  3  4  1  0
  4 12  1  0
  4 13  1  0
  4  5  1  0
  5 10  1  0
  5  6  1  0
  5 11  1  0
  6 15  1  0
  6 16  1  0
  6  9  1  0
  7  8  2  0
  7 17  1  0
  8 19  1  0
  9 18  1  0
M  END
