
     RDKit          3D

 19 19  0  0  0  0  0  0  0  0999 V2000
    2.0094    1.1125   -0.6556 O   0  0  0  0  0  0  0  0  0  0  0  0
   -4.0495    0.8021   -0.9040 O   0  0  0  0  0  0  0  0  0  0  0  0
    1.6881    0.1868    0.3050 C   0  0  0  0  0  0  0  0  0  0  0  0
    0.3798   -0.5512   -0.0202 C   0  0  0  0  0  0  0  0  0  0  0  0
   -0.8305    0.3730    0.1580 C   0  0  0  0  0  0  0  0  0  0  0  0
   -2.1362   -0.3657   -0.1490 C   0  0  0  0  0  0  0  0  0  0  0  0
    2.8453   -0.6063    0.0499 C   0  0  0  0  0  0  0  0  0  0  0  0
    3.1849    0.3246   -0.8995 C   0  0  0  0  0  0  0  0  0  0  0  0
   -3.3103    0.5485    0.0336 C   0  0  0  0  0  0  0  0  0  0  0  0
   -0.8560    0.7469    1.2058 H   0  0  0  0  0  0  0  0  0  0  0  0
   -0.7330    1.2448   -0.5263 H   0  0  0  0  0  0  0  0  0  0  0  0
    0.2794   -1.4220    0.6648 H   0  0  0  0  0  0  0  0  0  0  0  0
    0.4060   -0.9306   -1.0668 H   0  0  0  0  0  0  0  0  0  0  0  0
    1.7015    0.6263    1.3286 H   0  0  0  0  0  0  0  0  0  0  0  0
   -2.2511   -1.2306    0.5391 H   0  0  0  0  0  0  0  0  0  0  0  0
   -2.1134   -0.7480   -1.1936 H   0  0  0  0  0  0  0  0  0  0  0  0
    3.2733   -1.5217    0.4358 H   0  0  0  0  0  0  0  0  0  0  0  0
   -3.5089    0.9872    1.0063 H   0  0  0  0  0  0  0  0  0  0  0  0
    4.0211    0.4233   -1.5788 H   0  0  0  0  0  0  0  0  0  0  0  0
  1  8  1  0
  1  3  1  0
  2  9  2  0
  3 14  1  0
  3  7  1  0
  3  4  1  0
  4 12  1  0
  4 13  1  0
  4  5  1  0
  5 10  1  0
  5  6  1  0
  5 11  1  0
  6 15  1  0
  6 16  1  0
  6  9  1  0
  7  8  2  0
  7 17  1  0
  8 19  1  0
  9 18  1  0
M  END
