
     RDKit          3D

 13 13  0  0  0  0  0  0  0  0999 V2000
   -0.0273   -0.3870   -0.0572 C   0  0  0  0  0  0  0  0  0  0  0  0
    0.5475    0.9544   -0.2246 C   0  0  0  0  0  0  0  0  0  0  0  0
    1.8715    0.8219   -0.1255 C   0  0  0  0  0  0  0  0  0  0  0  0
   -1.4140   -0.8053   -0.1018 C   0  0  0  0  0  0  0  0  0  0  0  0
    2.1589   -0.6027    0.0974 C   0  0  0  0  0  0  0  0  0  0  0  0
   -2.3772    0.0185    0.3046 C   0  0  0  0  0  0  0  0  0  0  0  0
    0.9789   -1.0924    0.4094 C   0  0  0  0  0  0  0  0  0  0  0  0
    2.5995    1.5477   -0.4554 H   0  0  0  0  0  0  0  0  0  0  0  0
   -0.0429    1.7946   -0.5425 H   0  0  0  0  0  0  0  0  0  0  0  0
   -1.6560   -1.8165   -0.4071 H   0  0  0  0  0  0  0  0  0  0  0  0
    2.9200   -1.2086   -0.3990 H   0  0  0  0  0  0  0  0  0  0  0  0
   -2.1597    1.0871    0.3405 H   0  0  0  0  0  0  0  0  0  0  0  0
   -3.3992   -0.3118    0.3868 H   0  0  0  0  0  0  0  0  0  0  0  0
  1  7  2  0
  1  2  1  0
  1  4  1  0
  2  9  1  0
  2  3  2  0
  3  5  1  0
  3  8  1  0
  4 10  1  0
  4  6  2  3
  5  7  2  0
  5 11  1  0
  6 12  1  0
  6 13  1  0
M  END
