
     RDKit          3D

 19 19  0  0  0  0  0  0  0  0999 V2000
   -0.5269   -0.5616    0.0960 C   0  0  0  0  0  0  0  0  0  0  0  0
   -1.4744   -0.1624    1.2022 C   0  0  0  0  0  0  0  0  0  0  0  0
   -1.5639   -0.1375   -0.9144 C   0  0  0  0  0  0  0  0  0  0  0  0
   -2.5212    0.2369    0.1954 C   0  0  0  0  0  0  0  0  0  0  0  0
    3.1194    0.4454   -0.4222 C   0  0  0  0  0  0  0  0  0  0  0  0
    0.7438    0.2202    0.0423 C   0  0  0  0  0  0  0  0  0  0  0  0
    1.8432   -0.3389   -0.4808 C   0  0  0  0  0  0  0  0  0  0  0  0
   -0.3743   -1.6634    0.0579 H   0  0  0  0  0  0  0  0  0  0  0  0
   -1.7240   -1.0087    1.8593 H   0  0  0  0  0  0  0  0  0  0  0  0
   -1.0669    0.7377    1.7124 H   0  0  0  0  0  0  0  0  0  0  0  0
   -2.7892    1.3059    0.1642 H   0  0  0  0  0  0  0  0  0  0  0  0
   -3.4305   -0.3761    0.2773 H   0  0  0  0  0  0  0  0  0  0  0  0
   -1.9735   -0.9709   -1.5316 H   0  0  0  0  0  0  0  0  0  0  0  0
   -1.2909    0.7321   -1.5472 H   0  0  0  0  0  0  0  0  0  0  0  0
    2.9897    1.2893   -1.1212 H   0  0  0  0  0  0  0  0  0  0  0  0
    4.0038   -0.1736   -0.6143 H   0  0  0  0  0  0  0  0  0  0  0  0
    3.2143    0.9018    0.5950 H   0  0  0  0  0  0  0  0  0  0  0  0
    0.8804    0.9508    0.8459 H   0  0  0  0  0  0  0  0  0  0  0  0
    1.9409   -1.4268   -0.4163 H   0  0  0  0  0  0  0  0  0  0  0  0
  1  2  1  0
  1  3  1  0
  1  6  1  0
  1  8  1  0
  2 10  1  0
  2  9  1  0
  2  4  1  0
  3 13  1  0
  3 14  1  0
  3  4  1  0
  4 12  1  0
  4 11  1  0
  5 16  1  0
  5  7  1  0
  5 15  1  0
  5 17  1  0
  6 18  1  0
  6  7  2  3
  7 19  1  0
M  END
