
     RDKit          3D

 19 20  0  0  0  0  0  0  0  0999 V2000
   -0.2104   -0.5974   -0.6738 C   0  0  0  0  0  0  0  0  0  0  0  0
   -1.7422    0.8771    0.3460 C   0  0  0  0  0  0  0  0  0  0  0  0
    2.0452    0.8788   -0.2282 C   0  0  0  0  0  0  0  0  0  0  0  0
   -0.2982    0.6115    0.2113 C   0  0  0  0  0  0  0  0  0  0  0  0
    0.8076    1.3164    0.4815 C   0  0  0  0  0  0  0  0  0  0  0  0
   -1.4615   -1.2970   -0.3536 C   0  0  0  0  0  0  0  0  0  0  0  0
    1.0098   -1.3208   -0.2158 C   0  0  0  0  0  0  0  0  0  0  0  0
   -2.2937   -0.5159    0.3422 C   0  0  0  0  0  0  0  0  0  0  0  0
    2.1269   -0.6079   -0.0485 C   0  0  0  0  0  0  0  0  0  0  0  0
   -0.1386   -0.2153   -1.6983 H   0  0  0  0  0  0  0  0  0  0  0  0
   -2.0219    1.4228    1.2541 H   0  0  0  0  0  0  0  0  0  0  0  0
   -2.0740    1.4170   -0.5763 H   0  0  0  0  0  0  0  0  0  0  0  0
    1.8398    1.0402   -1.3153 H   0  0  0  0  0  0  0  0  0  0  0  0
    2.9505    1.3874    0.1267 H   0  0  0  0  0  0  0  0  0  0  0  0
   -3.2895   -0.7555    0.6778 H   0  0  0  0  0  0  0  0  0  0  0  0
    0.8665   -2.2473    0.3431 H   0  0  0  0  0  0  0  0  0  0  0  0
   -1.7949   -2.2190   -0.8375 H   0  0  0  0  0  0  0  0  0  0  0  0
    2.8554   -0.9411    0.6910 H   0  0  0  0  0  0  0  0  0  0  0  0
    0.8232    1.7660    1.4737 H   0  0  0  0  0  0  0  0  0  0  0  0
  1  7  1  0
  1  4  1  0
  1 10  1  0
  1  6  1  0
  2  4  1  0
  2 12  1  0
  2 11  1  0
  2  8  1  0
  3 14  1  0
  3  5  1  0
  3  9  1  0
  3 13  1  0
  4  5  2  0
  5 19  1  0
  6  8  2  0
  6 17  1  0
  7 16  1  0
  7  9  2  0
  8 15  1  0
  9 18  1  0
M  END
