
     RDKit          3D

 21 21  0  0  0  0  0  0  0  0999 V2000
   -1.2145    1.9201    0.8478 O   0  0  0  0  0  0  0  0  0  0  0  0
    3.6590   -0.5495    0.2238 O   0  0  0  0  0  0  0  0  0  0  0  0
    0.3604    0.3615   -0.0984 C   0  0  0  0  0  0  0  0  0  0  0  0
   -0.9396    0.5547    0.6760 C   0  0  0  0  0  0  0  0  0  0  0  0
    0.2071   -1.0048   -0.7653 C   0  0  0  0  0  0  0  0  0  0  0  0
   -2.0078   -0.1222   -0.1776 C   0  0  0  0  0  0  0  0  0  0  0  0
   -1.2905   -1.1983   -0.9913 C   0  0  0  0  0  0  0  0  0  0  0  0
    1.5990    0.4554    0.8111 C   0  0  0  0  0  0  0  0  0  0  0  0
    2.8643    0.3522    0.0114 C   0  0  0  0  0  0  0  0  0  0  0  0
    0.4246    1.1409   -0.8935 H   0  0  0  0  0  0  0  0  0  0  0  0
   -0.8764    0.0407    1.6651 H   0  0  0  0  0  0  0  0  0  0  0  0
   -2.4728    0.6160   -0.8686 H   0  0  0  0  0  0  0  0  0  0  0  0
   -2.8021   -0.5647    0.4622 H   0  0  0  0  0  0  0  0  0  0  0  0
   -1.5346   -1.0873   -2.0707 H   0  0  0  0  0  0  0  0  0  0  0  0
   -1.6028   -2.2123   -0.6581 H   0  0  0  0  0  0  0  0  0  0  0  0
    0.7664   -1.0439   -1.7255 H   0  0  0  0  0  0  0  0  0  0  0  0
    0.5825   -1.8123   -0.0976 H   0  0  0  0  0  0  0  0  0  0  0  0
    1.5698   -0.3425    1.5864 H   0  0  0  0  0  0  0  0  0  0  0  0
    1.5986    1.4365    1.3325 H   0  0  0  0  0  0  0  0  0  0  0  0
    3.0778    1.0839   -0.7611 H   0  0  0  0  0  0  0  0  0  0  0  0
   -1.9684    1.9759    1.4913 H   0  0  0  0  0  0  0  0  0  0  0  0
  1 21  1  0
  1  4  1  0
  2  9  2  0
  3  5  1  0
  3  8  1  0
  3 10  1  0
  3  4  1  0
  4  6  1  0
  4 11  1  0
  5 16  1  0
  5 17  1  0
  5  7  1  0
  6  7  1  0
  6 13  1  0
  6 12  1  0
  7 14  1  0
  7 15  1  0
  8  9  1  0
  8 18  1  0
  8 19  1  0
  9 20  1  0
M  END
