
     RDKit          3D

 21 21  0  0  0  0  0  0  0  0999 V2000
    2.6851    0.0484   -0.9940 O   0  0  0  0  0  0  0  0  0  0  0  0
    3.6712    0.1808   -0.1245 O   0  0  0  0  0  0  0  0  0  0  0  0
   -1.3624   -0.4697   -0.1570 C   0  0  0  0  0  0  0  0  0  0  0  0
   -0.4016   -0.5241    1.0459 C   0  0  0  0  0  0  0  0  0  0  0  0
    1.0328   -0.7536    0.5726 C   0  0  0  0  0  0  0  0  0  0  0  0
    1.5000    0.4094   -0.3233 C   0  0  0  0  0  0  0  0  0  0  0  0
   -2.7399    0.0325    0.2855 C   0  0  0  0  0  0  0  0  0  0  0  0
   -0.8260    0.3973   -1.2773 C   0  0  0  0  0  0  0  0  0  0  0  0
    0.4605    0.7799   -1.3558 C   0  0  0  0  0  0  0  0  0  0  0  0
   -1.4865   -1.4991   -0.5594 H   0  0  0  0  0  0  0  0  0  0  0  0
   -0.7013   -1.3521    1.7248 H   0  0  0  0  0  0  0  0  0  0  0  0
   -0.4458    0.4272    1.6223 H   0  0  0  0  0  0  0  0  0  0  0  0
    1.7018   -0.8346    1.4565 H   0  0  0  0  0  0  0  0  0  0  0  0
    1.0877   -1.7123    0.0103 H   0  0  0  0  0  0  0  0  0  0  0  0
    1.6630    1.3180    0.3037 H   0  0  0  0  0  0  0  0  0  0  0  0
   -3.4516    0.0006   -0.5672 H   0  0  0  0  0  0  0  0  0  0  0  0
   -3.1413   -0.6148    1.0944 H   0  0  0  0  0  0  0  0  0  0  0  0
   -2.6750    1.0773    0.6592 H   0  0  0  0  0  0  0  0  0  0  0  0
    0.7629    1.4156   -2.1830 H   0  0  0  0  0  0  0  0  0  0  0  0
   -1.5002    0.6870   -2.0787 H   0  0  0  0  0  0  0  0  0  0  0  0
    4.1665    0.9862   -0.4231 H   0  0  0  0  0  0  0  0  0  0  0  0
  1  6  1  0
  1  2  1  0
  2 21  1  0
  3  4  1  0
  3  7  1  0
  3 10  1  0
  3  8  1  0
  4  5  1  0
  4 12  1  0
  4 11  1  0
  5 13  1  0
  5 14  1  0
  5  6  1  0
  6  9  1  0
  6 15  1  0
  7 16  1  0
  7 18  1  0
  7 17  1  0
  8 20  1  0
  8  9  2  0
  9 19  1  0
M  END
