
     RDKit          3D

 22 23  0  0  0  0  0  0  0  0999 V2000
   -0.6112   -0.3138   -0.8311 C   0  0  0  0  0  0  0  0  0  0  0  0
   -1.3654   -1.2818    0.0992 C   0  0  0  0  0  0  0  0  0  0  0  0
   -2.5565   -0.4957    0.6573 C   0  0  0  0  0  0  0  0  0  0  0  0
    3.0770    0.1782   -0.1850 C   0  0  0  0  0  0  0  0  0  0  0  0
    0.7754   -0.0070   -0.3289 C   0  0  0  0  0  0  0  0  0  0  0  0
   -1.4472    0.9182   -0.8338 C   0  0  0  0  0  0  0  0  0  0  0  0
    1.8963   -0.2512   -0.9922 C   0  0  0  0  0  0  0  0  0  0  0  0
   -2.4921    0.8194   -0.0310 C   0  0  0  0  0  0  0  0  0  0  0  0
    2.4176    0.7046    1.0481 C   0  0  0  0  0  0  0  0  0  0  0  0
    1.1033    0.5937    0.9552 C   0  0  0  0  0  0  0  0  0  0  0  0
   -0.5717   -0.7288   -1.8629 H   0  0  0  0  0  0  0  0  0  0  0  0
   -0.7283   -1.6626    0.9284 H   0  0  0  0  0  0  0  0  0  0  0  0
   -1.7315   -2.1554   -0.4838 H   0  0  0  0  0  0  0  0  0  0  0  0
   -2.4594   -0.3505    1.7546 H   0  0  0  0  0  0  0  0  0  0  0  0
   -3.5165   -1.0035    0.4225 H   0  0  0  0  0  0  0  0  0  0  0  0
    3.6418    0.9800   -0.7052 H   0  0  0  0  0  0  0  0  0  0  0  0
    3.7292   -0.6879    0.0539 H   0  0  0  0  0  0  0  0  0  0  0  0
    1.9462   -0.6989   -1.9764 H   0  0  0  0  0  0  0  0  0  0  0  0
    2.9348    1.1197    1.9029 H   0  0  0  0  0  0  0  0  0  0  0  0
   -1.2262    1.8047   -1.4199 H   0  0  0  0  0  0  0  0  0  0  0  0
   -3.2132    1.6173    0.1125 H   0  0  0  0  0  0  0  0  0  0  0  0
    0.3974    0.9013    1.7156 H   0  0  0  0  0  0  0  0  0  0  0  0
  1  6  1  0
  1 11  1  0
  1  2  1  0
  1  5  1  0
  2 12  1  0
  2  3  1  0
  2 13  1  0
  3 15  1  0
  3 14  1  0
  3  8  1  0
  4  7  1  0
  4  9  1  0
  4 16  1  0
  4 17  1  0
  5 10  1  0
  5  7  2  0
  6 20  1  0
  6  8  2  0
  7 18  1  0
  8 21  1  0
  9 19  1  0
  9 10  2  0
 10 22  1  0
M  END
