
     RDKit          3D

 21 22  0  0  0  0  0  0  0  0999 V2000
   -0.7237   -0.5420    1.7343 O   0  0  0  0  0  0  0  0  0  0  0  0
    0.0342   -1.4642    1.2427 O   0  0  0  0  0  0  0  0  0  0  0  0
   -1.2752    0.2184    0.7409 C   0  0  0  0  0  0  0  0  0  0  0  0
   -0.1569   -1.5742   -0.1143 C   0  0  0  0  0  0  0  0  0  0  0  0
   -1.4035   -0.7860   -0.3702 C   0  0  0  0  0  0  0  0  0  0  0  0
   -0.5690    1.4674    0.3827 C   0  0  0  0  0  0  0  0  0  0  0  0
    1.0061   -0.9181   -0.8364 C   0  0  0  0  0  0  0  0  0  0  0  0
    0.8179    1.4006   -0.0891 C   0  0  0  0  0  0  0  0  0  0  0  0
    1.5550    0.1150    0.1054 C   0  0  0  0  0  0  0  0  0  0  0  0
   -2.3223    0.5146    1.0099 H   0  0  0  0  0  0  0  0  0  0  0  0
   -0.2793   -2.6006   -0.4818 H   0  0  0  0  0  0  0  0  0  0  0  0
    0.8785    1.6320   -1.1839 H   0  0  0  0  0  0  0  0  0  0  0  0
    1.4398    2.1954    0.3993 H   0  0  0  0  0  0  0  0  0  0  0  0
   -0.6267    2.1414    1.2753 H   0  0  0  0  0  0  0  0  0  0  0  0
   -1.1978    1.9827   -0.3895 H   0  0  0  0  0  0  0  0  0  0  0  0
    1.6378   -0.2204    1.1473 H   0  0  0  0  0  0  0  0  0  0  0  0
    2.6080    0.2977   -0.2314 H   0  0  0  0  0  0  0  0  0  0  0  0
    1.7761   -1.6603   -1.1535 H   0  0  0  0  0  0  0  0  0  0  0  0
   -2.2604   -1.4540   -0.1041 H   0  0  0  0  0  0  0  0  0  0  0  0
   -1.4942   -0.3524   -1.3670 H   0  0  0  0  0  0  0  0  0  0  0  0
    0.5556   -0.3929   -1.7163 H   0  0  0  0  0  0  0  0  0  0  0  0
  1  2  1  0
  1  3  1  0
  2  4  1  0
  3  5  1  0
  3 10  1  0
  3  6  1  0
  4 11  1  0
  4  5  1  0
  4  7  1  0
  5 20  1  0
  5 19  1  0
  6 14  1  0
  6 15  1  0
  6  8  1  0
  7  9  1  0
  7 21  1  0
  7 18  1  0
  8  9  1  0
  8 12  1  0
  8 13  1  0
  9 16  1  0
  9 17  1  0
M  END
