
     RDKit          3D

 13 13  0  0  0  0  0  0  0  0999 V2000
   -0.5179   -0.6742    0.6554 C   0  0  0  0  0  0  0  0  0  0  0  0
    0.8548   -0.8693    0.0528 C   0  0  0  0  0  0  0  0  0  0  0  0
   -1.1076    0.3027   -0.3561 C   0  0  0  0  0  0  0  0  0  0  0  0
    1.2032    0.5514   -0.2728 C   0  0  0  0  0  0  0  0  0  0  0  0
    0.0712    1.2038   -0.5719 C   0  0  0  0  0  0  0  0  0  0  0  0
   -0.4072   -0.1218    1.5998 H   0  0  0  0  0  0  0  0  0  0  0  0
   -1.0999   -1.6022    0.7359 H   0  0  0  0  0  0  0  0  0  0  0  0
    0.7284   -1.3931   -0.9079 H   0  0  0  0  0  0  0  0  0  0  0  0
    1.5710   -1.3394    0.7403 H   0  0  0  0  0  0  0  0  0  0  0  0
   -1.9723    0.8293    0.0650 H   0  0  0  0  0  0  0  0  0  0  0  0
   -1.3338   -0.2274   -1.3167 H   0  0  0  0  0  0  0  0  0  0  0  0
    2.0114    1.0656    0.2583 H   0  0  0  0  0  0  0  0  0  0  0  0
   -0.0015    2.2745   -0.6820 H   0  0  0  0  0  0  0  0  0  0  0  0
  1  2  1  0
  1  6  1  0
  1  3  1  0
  1  7  1  0
  2  4  1  0
  2  9  1  0
  2  8  1  0
  3 10  1  0
  3  5  1  0
  3 11  1  0
  4  5  2  0
  4 12  1  0
  5 13  1  0
M  END
