
     RDKit          3D

 20 21  0  0  0  0  0  0  0  0999 V2000
   -1.3732   -0.5513    0.4010 C   0  0  0  0  0  0  0  0  0  0  0  0
   -1.8669   -1.4895   -0.7001 C   0  0  0  0  0  0  0  0  0  0  0  0
    0.0884   -0.2644    0.2750 C   0  0  0  0  0  0  0  0  0  0  0  0
    0.2873    1.0787    0.0646 C   0  0  0  0  0  0  0  0  0  0  0  0
   -1.9468    0.8349    0.2342 C   0  0  0  0  0  0  0  0  0  0  0  0
    1.1678   -1.1462    0.3684 C   0  0  0  0  0  0  0  0  0  0  0  0
   -0.9968    1.7471    0.0418 C   0  0  0  0  0  0  0  0  0  0  0  0
    1.5653    1.6181   -0.0760 C   0  0  0  0  0  0  0  0  0  0  0  0
    2.4672   -0.6299    0.2277 C   0  0  0  0  0  0  0  0  0  0  0  0
    2.6653    0.7479    0.0050 C   0  0  0  0  0  0  0  0  0  0  0  0
   -1.6121   -0.9559    1.4079 H   0  0  0  0  0  0  0  0  0  0  0  0
   -1.3966   -2.4890   -0.5851 H   0  0  0  0  0  0  0  0  0  0  0  0
   -2.9685   -1.6107   -0.6257 H   0  0  0  0  0  0  0  0  0  0  0  0
   -1.6161   -1.0868   -1.7056 H   0  0  0  0  0  0  0  0  0  0  0  0
   -3.0028    1.0693    0.2694 H   0  0  0  0  0  0  0  0  0  0  0  0
    1.0085   -2.2020    0.5446 H   0  0  0  0  0  0  0  0  0  0  0  0
   -1.1666    2.8063   -0.0998 H   0  0  0  0  0  0  0  0  0  0  0  0
    3.3199   -1.2931    0.2930 H   0  0  0  0  0  0  0  0  0  0  0  0
    1.7074    2.6784   -0.2399 H   0  0  0  0  0  0  0  0  0  0  0  0
    3.6693    1.1380   -0.1004 H   0  0  0  0  0  0  0  0  0  0  0  0
  1 11  1  0
  1  5  1  0
  1  3  1  0
  1  2  1  0
  2 12  1  0
  2 14  1  0
  2 13  1  0
  3  6  1  0
  3  4  2  0
  4  8  1  0
  4  7  1  0
  5  7  2  0
  5 15  1  0
  6  9  2  0
  6 16  1  0
  7 17  1  0
  8 19  1  0
  8 10  2  0
  9 18  1  0
  9 10  1  0
 10 20  1  0
M  END
