
     RDKit          3D

 19 20  0  0  0  0  0  0  0  0999 V2000
   -0.0826   -0.3441   -0.5596 C   0  0  0  0  0  0  0  0  0  0  0  0
    1.3055   -0.4051    0.0684 C   0  0  0  0  0  0  0  0  0  0  0  0
   -1.1896    0.0107    0.3343 C   0  0  0  0  0  0  0  0  0  0  0  0
   -1.0406   -1.4692   -0.1136 C   0  0  0  0  0  0  0  0  0  0  0  0
    2.4273    0.3531   -0.5083 C   0  0  0  0  0  0  0  0  0  0  0  0
    1.8199    0.7737    0.8170 C   0  0  0  0  0  0  0  0  0  0  0  0
   -2.4537    0.6686   -0.1460 C   0  0  0  0  0  0  0  0  0  0  0  0
    1.5596   -1.3842    0.5485 H   0  0  0  0  0  0  0  0  0  0  0  0
   -0.0688   -0.1461   -1.6387 H   0  0  0  0  0  0  0  0  0  0  0  0
   -0.9611    0.1618    1.4078 H   0  0  0  0  0  0  0  0  0  0  0  0
    3.4563   -0.0429   -0.3997 H   0  0  0  0  0  0  0  0  0  0  0  0
    2.3127    1.0510   -1.3637 H   0  0  0  0  0  0  0  0  0  0  0  0
    2.4168    0.6450    1.7520 H   0  0  0  0  0  0  0  0  0  0  0  0
    1.3042    1.7509    0.7967 H   0  0  0  0  0  0  0  0  0  0  0  0
   -0.6632   -2.1805    0.6312 H   0  0  0  0  0  0  0  0  0  0  0  0
   -1.7553   -1.8171   -0.8879 H   0  0  0  0  0  0  0  0  0  0  0  0
   -2.8521    0.1225   -1.0367 H   0  0  0  0  0  0  0  0  0  0  0  0
   -3.2145    0.4969    0.6573 H   0  0  0  0  0  0  0  0  0  0  0  0
   -2.3208    1.7550   -0.3590 H   0  0  0  0  0  0  0  0  0  0  0  0
  1  9  1  0
  1  3  1  0
  1  2  1  0
  1  4  1  0
  2  8  1  0
  2  6  1  0
  2  5  1  0
  3  7  1  0
  3  4  1  0
  3 10  1  0
  4 16  1  0
  4 15  1  0
  5  6  1  0
  5 11  1  0
  5 12  1  0
  6 14  1  0
  6 13  1  0
  7 19  1  0
  7 18  1  0
  7 17  1  0
M  END
