
     RDKit          3D

 20 20  0  0  0  0  0  0  0  0999 V2000
    3.1371   -0.1354    0.2563 C   0  0  0  0  0  0  0  0  0  0  0  0
   -0.9572   -0.7770    0.2710 C   0  0  0  0  0  0  0  0  0  0  0  0
   -0.2828    0.1082   -0.5240 C   0  0  0  0  0  0  0  0  0  0  0  0
   -2.1664   -0.3347    0.8023 C   0  0  0  0  0  0  0  0  0  0  0  0
   -0.5750    1.4337   -0.6560 C   0  0  0  0  0  0  0  0  0  0  0  0
   -1.7245    1.8991   -0.0228 C   0  0  0  0  0  0  0  0  0  0  0  0
   -2.5072    1.0100    0.7063 C   0  0  0  0  0  0  0  0  0  0  0  0
    2.2355   -0.5737   -0.8003 C   0  0  0  0  0  0  0  0  0  0  0  0
   -0.8853   -2.0581   -0.0112 C   0  0  0  0  0  0  0  0  0  0  0  0
    0.9859   -0.1908   -0.6792 C   0  0  0  0  0  0  0  0  0  0  0  0
    4.2065   -0.1291   -0.0605 H   0  0  0  0  0  0  0  0  0  0  0  0
    2.9844   -0.7232    1.1931 H   0  0  0  0  0  0  0  0  0  0  0  0
    2.8985    0.9197    0.5312 H   0  0  0  0  0  0  0  0  0  0  0  0
    0.1571    2.1868   -0.9186 H   0  0  0  0  0  0  0  0  0  0  0  0
   -1.8574    2.9549    0.2236 H   0  0  0  0  0  0  0  0  0  0  0  0
   -3.0002   -1.0200    0.9646 H   0  0  0  0  0  0  0  0  0  0  0  0
   -3.4130    1.4039    1.1692 H   0  0  0  0  0  0  0  0  0  0  0  0
    2.4455   -0.8671   -1.7973 H   0  0  0  0  0  0  0  0  0  0  0  0
    0.0727   -2.4674   -0.3285 H   0  0  0  0  0  0  0  0  0  0  0  0
   -1.7542   -2.6398   -0.3191 H   0  0  0  0  0  0  0  0  0  0  0  0
  1 11  1  0
  1 13  1  0
  1  8  1  0
  1 12  1  0
  2  3  1  0
  2  9  2  3
  2  4  1  0
  3 10  2  3
  3  5  1  0
  4 16  1  0
  4  7  2  0
  5  6  2  0
  5 14  1  0
  6 15  1  0
  6  7  1  0
  7 17  1  0
  8 18  1  0
  8 10  2  3
  9 19  1  0
  9 20  1  0
M  END
