
     RDKit          3D

 19 20  0  0  0  0  0  0  0  0999 V2000
    0.3586   -0.2855    1.8042 O   0  0  0  0  0  0  0  0  0  0  0  0
    0.1720    1.0389    1.6469 O   0  0  0  0  0  0  0  0  0  0  0  0
    0.6933   -0.9369    0.6385 C   0  0  0  0  0  0  0  0  0  0  0  0
   -0.4450   -1.1869   -0.2994 C   0  0  0  0  0  0  0  0  0  0  0  0
   -1.6130   -0.2707   -0.1384 C   0  0  0  0  0  0  0  0  0  0  0  0
   -1.2526    1.1961   -0.3024 C   0  0  0  0  0  0  0  0  0  0  0  0
    1.7659   -0.2039   -0.1590 C   0  0  0  0  0  0  0  0  0  0  0  0
    0.1126    1.4387    0.2870 C   0  0  0  0  0  0  0  0  0  0  0  0
    1.2497    1.1859   -0.3661 C   0  0  0  0  0  0  0  0  0  0  0  0
    1.1113   -1.9307    0.9416 H   0  0  0  0  0  0  0  0  0  0  0  0
   -0.1236   -1.1173   -1.3686 H   0  0  0  0  0  0  0  0  0  0  0  0
   -0.8309   -2.2264   -0.1809 H   0  0  0  0  0  0  0  0  0  0  0  0
   -2.3641   -0.5660   -0.9041 H   0  0  0  0  0  0  0  0  0  0  0  0
   -2.0769   -0.4295    0.8452 H   0  0  0  0  0  0  0  0  0  0  0  0
   -2.0372    1.7531    0.2735 H   0  0  0  0  0  0  0  0  0  0  0  0
   -1.3597    1.5433   -1.3311 H   0  0  0  0  0  0  0  0  0  0  0  0
    1.8792   -0.6981   -1.1326 H   0  0  0  0  0  0  0  0  0  0  0  0
    2.7364   -0.2236    0.3528 H   0  0  0  0  0  0  0  0  0  0  0  0
    2.0239    1.9195   -0.6072 H   0  0  0  0  0  0  0  0  0  0  0  0
  1  2  1  0
  1  3  1  0
  2  8  1  0
  3  4  1  0
  3  7  1  0
  3 10  1  0
  4 11  1  0
  4 12  1  0
  4  5  1  0
  5  6  1  0
  5 14  1  0
  5 13  1  0
  6 16  1  0
  6 15  1  0
  6  8  1  0
  7 17  1  0
  7  9  1  0
  7 18  1  0
  8  9  2  0
  9 19  1  0
M  END
