
     RDKit          3D

 14 14  0  0  0  0  0  0  0  0999 V2000
   -1.0702    0.6996   -0.3131 C   0  0  0  0  0  0  0  0  0  0  0  0
   -1.0649   -0.6858    0.3583 C   0  0  0  0  0  0  0  0  0  0  0  0
    0.2444    1.4136   -0.1344 C   0  0  0  0  0  0  0  0  0  0  0  0
    0.2316   -1.4167    0.1243 C   0  0  0  0  0  0  0  0  0  0  0  0
    1.3884    0.7280   -0.0428 C   0  0  0  0  0  0  0  0  0  0  0  0
    1.3794   -0.7459   -0.0159 C   0  0  0  0  0  0  0  0  0  0  0  0
   -1.2606    0.5812   -1.4015 H   0  0  0  0  0  0  0  0  0  0  0  0
   -1.8887    1.3160    0.1158 H   0  0  0  0  0  0  0  0  0  0  0  0
   -1.2075   -0.5653    1.4538 H   0  0  0  0  0  0  0  0  0  0  0  0
   -1.9088   -1.2915   -0.0354 H   0  0  0  0  0  0  0  0  0  0  0  0
    0.2689    2.4958   -0.1600 H   0  0  0  0  0  0  0  0  0  0  0  0
    0.2433   -2.4991    0.1491 H   0  0  0  0  0  0  0  0  0  0  0  0
    2.3317    1.2564    0.0068 H   0  0  0  0  0  0  0  0  0  0  0  0
    2.3129   -1.2864   -0.1052 H   0  0  0  0  0  0  0  0  0  0  0  0
  1  7  1  0
  1  3  1  0
  1  2  1  0
  1  8  1  0
  2  4  1  0
  2  9  1  0
  2 10  1  0
  3  5  2  0
  3 11  1  0
  4 12  1  0
  4  6  2  0
  5 13  1  0
  5  6  1  0
  6 14  1  0
M  END
