
     RDKit          3D

 13 14  0  0  0  0  0  0  0  0999 V2000
    0.4910   -0.8190    0.1092 C   0  0  0  0  0  0  0  0  0  0  0  0
    0.4775    0.6940    0.4191 C   0  0  0  0  0  0  0  0  0  0  0  0
    1.3425    0.1189   -0.6254 C   0  0  0  0  0  0  0  0  0  0  0  0
   -1.0097   -0.7342    0.0472 C   0  0  0  0  0  0  0  0  0  0  0  0
   -0.9793    0.7748    0.0337 C   0  0  0  0  0  0  0  0  0  0  0  0
    0.9823   -1.4885    0.8309 H   0  0  0  0  0  0  0  0  0  0  0  0
    0.8098    0.9086    1.4424 H   0  0  0  0  0  0  0  0  0  0  0  0
   -1.4770   -1.0846    1.0013 H   0  0  0  0  0  0  0  0  0  0  0  0
   -1.4217   -1.2171   -0.8496 H   0  0  0  0  0  0  0  0  0  0  0  0
   -1.0491    1.1256   -1.0227 H   0  0  0  0  0  0  0  0  0  0  0  0
   -1.6437    1.2762    0.7452 H   0  0  0  0  0  0  0  0  0  0  0  0
    2.4240    0.1099   -0.4631 H   0  0  0  0  0  0  0  0  0  0  0  0
    1.0533    0.3354   -1.6682 H   0  0  0  0  0  0  0  0  0  0  0  0
  1  6  1  0
  1  4  1  0
  1  3  1  0
  1  2  1  0
  2  7  1  0
  2  3  1  0
  2  5  1  0
  3 13  1  0
  3 12  1  0
  4  5  1  0
  4  8  1  0
  4  9  1  0
  5 10  1  0
  5 11  1  0
M  END
