
     RDKit          3D

 18 19  0  0  0  0  0  0  0  0999 V2000
    0.4306    0.1232   -1.5744 O   0  0  0  0  0  0  0  0  0  0  0  0
    0.3959   -1.0756   -0.8353 C   0  0  0  0  0  0  0  0  0  0  0  0
    0.7146    1.0793   -0.5796 C   0  0  0  0  0  0  0  0  0  0  0  0
   -0.9926   -1.1560   -0.1608 C   0  0  0  0  0  0  0  0  0  0  0  0
   -1.2689    0.1037    0.7081 C   0  0  0  0  0  0  0  0  0  0  0  0
   -0.6151    1.3960    0.1421 C   0  0  0  0  0  0  0  0  0  0  0  0
    1.4714   -0.9103    0.1872 C   0  0  0  0  0  0  0  0  0  0  0  0
    1.6629    0.3840    0.3408 C   0  0  0  0  0  0  0  0  0  0  0  0
    0.5918   -1.9473   -1.4948 H   0  0  0  0  0  0  0  0  0  0  0  0
   -1.0620   -2.0718    0.4654 H   0  0  0  0  0  0  0  0  0  0  0  0
   -1.7675   -1.2253   -0.9547 H   0  0  0  0  0  0  0  0  0  0  0  0
    1.1735    1.9856   -1.0281 H   0  0  0  0  0  0  0  0  0  0  0  0
   -2.3646    0.2527    0.8182 H   0  0  0  0  0  0  0  0  0  0  0  0
   -0.8603   -0.0777    1.7265 H   0  0  0  0  0  0  0  0  0  0  0  0
   -0.4413    2.1246    0.9635 H   0  0  0  0  0  0  0  0  0  0  0  0
   -1.3106    1.8637   -0.5881 H   0  0  0  0  0  0  0  0  0  0  0  0
    1.9336   -1.6913    0.7817 H   0  0  0  0  0  0  0  0  0  0  0  0
    2.3084    0.8426    1.0824 H   0  0  0  0  0  0  0  0  0  0  0  0
  1  2  1  0
  1  3  1  0
  2  7  1  0
  2  4  1  0
  2  9  1  0
  3 12  1  0
  3  6  1  0
  3  8  1  0
  4 10  1  0
  4 11  1  0
  4  5  1  0
  5 13  1  0
  5  6  1  0
  5 14  1  0
  6 15  1  0
  6 16  1  0
  7 17  1  0
  7  8  2  0
  8 18  1  0
M  END
