
     RDKit          3D

 18 19  0  0  0  0  0  0  0  0999 V2000
    0.3946    0.1467   -1.6197 O   0  0  0  0  0  0  0  0  0  0  0  0
    0.3480   -1.0380   -0.8862 C   0  0  0  0  0  0  0  0  0  0  0  0
    0.6976    1.0599   -0.5984 C   0  0  0  0  0  0  0  0  0  0  0  0
   -0.9194   -1.1416   -0.0868 C   0  0  0  0  0  0  0  0  0  0  0  0
   -1.2826    0.1153    0.6389 C   0  0  0  0  0  0  0  0  0  0  0  0
   -0.5340    1.3327    0.2087 C   0  0  0  0  0  0  0  0  0  0  0  0
    1.5169   -0.9239    0.0414 C   0  0  0  0  0  0  0  0  0  0  0  0
    1.7618    0.3828    0.2075 C   0  0  0  0  0  0  0  0  0  0  0  0
    0.4547   -1.8866   -1.5748 H   0  0  0  0  0  0  0  0  0  0  0  0
   -0.7246   -1.9181    0.6965 H   0  0  0  0  0  0  0  0  0  0  0  0
   -1.7587   -1.5083   -0.7305 H   0  0  0  0  0  0  0  0  0  0  0  0
    1.0696    2.0115   -1.0185 H   0  0  0  0  0  0  0  0  0  0  0  0
   -2.3638    0.3168    0.4215 H   0  0  0  0  0  0  0  0  0  0  0  0
   -1.2553   -0.0054    1.7525 H   0  0  0  0  0  0  0  0  0  0  0  0
   -0.2321    1.8944    1.1225 H   0  0  0  0  0  0  0  0  0  0  0  0
   -1.1623    2.0440   -0.3774 H   0  0  0  0  0  0  0  0  0  0  0  0
    1.8724   -1.7274    0.6675 H   0  0  0  0  0  0  0  0  0  0  0  0
    2.1171    0.8451    1.1352 H   0  0  0  0  0  0  0  0  0  0  0  0
  1  2  1  0
  1  3  1  0
  2  7  1  0
  2  4  1  0
  2  9  1  0
  3 12  1  0
  3  6  1  0
  3  8  1  0
  4 10  1  0
  4 11  1  0
  4  5  1  0
  5 13  1  0
  5  6  1  0
  5 14  1  0
  6 15  1  0
  6 16  1  0
  7 17  1  0
  7  8  2  0
  8 18  1  0
M  END
