
     RDKit          3D

 23 23  0  0  0  0  0  0  0  0999 V2000
    2.1485   -1.4321   -0.3102 O   0  0  0  0  0  0  0  0  0  0  0  0
    3.4161   -1.2399    0.0074 O   0  0  0  0  0  0  0  0  0  0  0  0
    3.9823   -0.8203   -1.1075 O   0  0  0  0  0  0  0  0  0  0  0  0
    4.2654    0.4476   -0.8866 O   0  0  0  0  0  0  0  0  0  0  0  0
   -0.0891   -0.6928    0.1870 C   0  0  0  0  0  0  0  0  0  0  0  0
   -0.9322    0.0551    1.2399 C   0  0  0  0  0  0  0  0  0  0  0  0
   -2.3780    0.1985    0.7668 C   0  0  0  0  0  0  0  0  0  0  0  0
   -2.4386    1.0174   -0.5276 C   0  0  0  0  0  0  0  0  0  0  0  0
    1.4029   -0.5945    0.5374 C   0  0  0  0  0  0  0  0  0  0  0  0
   -0.3416   -0.1737   -1.2168 C   0  0  0  0  0  0  0  0  0  0  0  0
   -1.4042    0.5847   -1.5369 C   0  0  0  0  0  0  0  0  0  0  0  0
   -0.3792   -1.7668    0.2057 H   0  0  0  0  0  0  0  0  0  0  0  0
   -2.9797    0.7042    1.5525 H   0  0  0  0  0  0  0  0  0  0  0  0
   -2.8150   -0.8098    0.5935 H   0  0  0  0  0  0  0  0  0  0  0  0
   -0.5096    1.0679    1.4270 H   0  0  0  0  0  0  0  0  0  0  0  0
   -0.9152   -0.5071    2.1990 H   0  0  0  0  0  0  0  0  0  0  0  0
   -2.2821    2.0935   -0.2993 H   0  0  0  0  0  0  0  0  0  0  0  0
   -3.4490    0.9044   -0.9750 H   0  0  0  0  0  0  0  0  0  0  0  0
    1.7371    0.4639    0.4333 H   0  0  0  0  0  0  0  0  0  0  0  0
    1.5518   -0.9147    1.5939 H   0  0  0  0  0  0  0  0  0  0  0  0
   -1.5132    0.9273   -2.5615 H   0  0  0  0  0  0  0  0  0  0  0  0
    0.3393   -0.4647   -2.0118 H   0  0  0  0  0  0  0  0  0  0  0  0
    3.5833    0.9520   -1.3997 H   0  0  0  0  0  0  0  0  0  0  0  0
  1  2  1  0
  1  9  1  0
  2  3  1  0
  3  4  1  0
  4 23  1  0
  5 10  1  0
  5  9  1  0
  5  6  1  0
  5 12  1  0
  6  7  1  0
  6 15  1  0
  6 16  1  0
  7 14  1  0
  7 13  1  0
  7  8  1  0
  8 17  1  0
  8 11  1  0
  8 18  1  0
  9 19  1  0
  9 20  1  0
 10 11  2  0
 10 22  1  0
 11 21  1  0
M  END
