
     RDKit          3D

 21 21  0  0  0  0  0  0  0  0999 V2000
   -3.2438   -1.2040    0.5816 O   0  0  0  0  0  0  0  0  0  0  0  0
    4.2337   -0.2002    0.9058 O   0  0  0  0  0  0  0  0  0  0  0  0
   -1.3659    0.4484    0.4715 C   0  0  0  0  0  0  0  0  0  0  0  0
   -2.2255   -0.6002   -0.1476 C   0  0  0  0  0  0  0  0  0  0  0  0
   -2.4956    0.8751   -0.4628 C   0  0  0  0  0  0  0  0  0  0  0  0
   -0.0062    0.7043   -0.1126 C   0  0  0  0  0  0  0  0  0  0  0  0
    1.1197    0.1514    0.7169 C   0  0  0  0  0  0  0  0  0  0  0  0
    2.2360   -0.2047   -0.2591 C   0  0  0  0  0  0  0  0  0  0  0  0
    3.3670   -0.8866    0.4000 C   0  0  0  0  0  0  0  0  0  0  0  0
   -1.5754    0.7143    1.5363 H   0  0  0  0  0  0  0  0  0  0  0  0
   -1.7205   -1.1969   -0.9291 H   0  0  0  0  0  0  0  0  0  0  0  0
    1.5101    0.9844    1.3546 H   0  0  0  0  0  0  0  0  0  0  0  0
    0.8428   -0.7202    1.3269 H   0  0  0  0  0  0  0  0  0  0  0  0
    0.0113    0.2065   -1.1154 H   0  0  0  0  0  0  0  0  0  0  0  0
    0.1718    1.7827   -0.3225 H   0  0  0  0  0  0  0  0  0  0  0  0
   -3.3948    1.3441   -0.0374 H   0  0  0  0  0  0  0  0  0  0  0  0
   -2.2559    1.1973   -1.4859 H   0  0  0  0  0  0  0  0  0  0  0  0
    2.6082    0.7216   -0.7266 H   0  0  0  0  0  0  0  0  0  0  0  0
    1.8208   -0.8805   -1.0278 H   0  0  0  0  0  0  0  0  0  0  0  0
    3.4140   -1.9519    0.5463 H   0  0  0  0  0  0  0  0  0  0  0  0
   -3.0515   -1.2850    1.5393 H   0  0  0  0  0  0  0  0  0  0  0  0
  1 21  1  0
  1  4  1  0
  2  9  2  0
  3  5  1  0
  3 10  1  0
  3  6  1  0
  3  4  1  0
  4  5  1  0
  4 11  1  0
  5 16  1  0
  5 17  1  0
  6 15  1  0
  6 14  1  0
  6  7  1  0
  7 13  1  0
  7 12  1  0
  7  8  1  0
  8  9  1  0
  8 18  1  0
  8 19  1  0
  9 20  1  0
M  END
