
     RDKit          3D

 30 31  0  0  0  0  0  0  0  0999 V2000
    0.5069   -0.4745   -0.5265 C   0  0  0  0  0  0  0  0  0  0  0  0
   -0.9352    0.0690   -0.6208 C   0  0  0  0  0  0  0  0  0  0  0  0
    0.3673   -1.9151   -1.0369 C   0  0  0  0  0  0  0  0  0  0  0  0
   -1.8330   -1.1234   -0.2777 C   0  0  0  0  0  0  0  0  0  0  0  0
   -1.2068    1.3168    0.2523 C   0  0  0  0  0  0  0  0  0  0  0  0
   -1.0328   -2.3775   -0.6322 C   0  0  0  0  0  0  0  0  0  0  0  0
    2.9271    1.0038    0.4498 C   0  0  0  0  0  0  0  0  0  0  0  0
   -2.5682    1.9407   -0.0500 C   0  0  0  0  0  0  0  0  0  0  0  0
    0.9963   -0.5152    0.9178 C   0  0  0  0  0  0  0  0  0  0  0  0
    1.4327    0.3170   -1.4358 C   0  0  0  0  0  0  0  0  0  0  0  0
    2.5089    0.9808   -0.9941 C   0  0  0  0  0  0  0  0  0  0  0  0
    2.0751    0.1512    1.3481 C   0  0  0  0  0  0  0  0  0  0  0  0
   -1.1402    0.3392   -1.6839 H   0  0  0  0  0  0  0  0  0  0  0  0
   -0.4224    2.0788    0.0526 H   0  0  0  0  0  0  0  0  0  0  0  0
   -1.1644    1.0582    1.3324 H   0  0  0  0  0  0  0  0  0  0  0  0
   -2.7824   -1.0820   -0.8552 H   0  0  0  0  0  0  0  0  0  0  0  0
   -2.0764   -1.1357    0.8080 H   0  0  0  0  0  0  0  0  0  0  0  0
   -1.5162   -2.9298   -1.4676 H   0  0  0  0  0  0  0  0  0  0  0  0
   -0.9708   -3.0511    0.2507 H   0  0  0  0  0  0  0  0  0  0  0  0
    0.4388   -1.9478   -2.1480 H   0  0  0  0  0  0  0  0  0  0  0  0
    1.1516   -2.5895   -0.6257 H   0  0  0  0  0  0  0  0  0  0  0  0
    3.9750    0.6435    0.5163 H   0  0  0  0  0  0  0  0  0  0  0  0
    2.8950    2.0515    0.8151 H   0  0  0  0  0  0  0  0  0  0  0  0
   -3.3850    1.2275    0.1886 H   0  0  0  0  0  0  0  0  0  0  0  0
   -2.7043    2.8514    0.5705 H   0  0  0  0  0  0  0  0  0  0  0  0
   -2.6326    2.2293   -1.1206 H   0  0  0  0  0  0  0  0  0  0  0  0
    0.4355   -1.1010    1.6415 H   0  0  0  0  0  0  0  0  0  0  0  0
    1.2031    0.3647   -2.4971 H   0  0  0  0  0  0  0  0  0  0  0  0
    3.1092    1.5368   -1.7079 H   0  0  0  0  0  0  0  0  0  0  0  0
    2.3484    0.0824    2.3967 H   0  0  0  0  0  0  0  0  0  0  0  0
  1  2  1  0
  1  9  1  0
  1  3  1  0
  1 10  1  0
  2 13  1  0
  2  5  1  0
  2  4  1  0
  3  6  1  0
  3 21  1  0
  3 20  1  0
  4  6  1  0
  4 17  1  0
  4 16  1  0
  5  8  1  0
  5 15  1  0
  5 14  1  0
  6 19  1  0
  6 18  1  0
  7 23  1  0
  7 12  1  0
  7 11  1  0
  7 22  1  0
  8 25  1  0
  8 24  1  0
  8 26  1  0
  9 12  2  0
  9 27  1  0
 10 11  2  0
 10 28  1  0
 11 29  1  0
 12 30  1  0
M  END
