
     RDKit          3D

 20 20  0  0  0  0  0  0  0  0999 V2000
   -0.6808    0.1355    0.2239 C   0  0  0  0  0  0  0  0  0  0  0  0
    0.6679   -0.2155   -0.0532 C   0  0  0  0  0  0  0  0  0  0  0  0
   -1.1575    1.3994   -0.1806 C   0  0  0  0  0  0  0  0  0  0  0  0
    1.5008    0.7204   -0.7003 C   0  0  0  0  0  0  0  0  0  0  0  0
   -1.6074   -0.8366    0.8617 C   0  0  0  0  0  0  0  0  0  0  0  0
    1.0091    1.9680   -1.0839 C   0  0  0  0  0  0  0  0  0  0  0  0
   -0.3168    2.3057   -0.8268 C   0  0  0  0  0  0  0  0  0  0  0  0
    1.2260   -1.5180    0.3964 C   0  0  0  0  0  0  0  0  0  0  0  0
   -2.6101   -0.4718    1.6610 C   0  0  0  0  0  0  0  0  0  0  0  0
    2.1823   -2.1693   -0.2659 C   0  0  0  0  0  0  0  0  0  0  0  0
    2.5441    0.5015   -0.8873 H   0  0  0  0  0  0  0  0  0  0  0  0
   -2.1905    1.6812   -0.0237 H   0  0  0  0  0  0  0  0  0  0  0  0
   -1.4534   -1.8958    0.6979 H   0  0  0  0  0  0  0  0  0  0  0  0
    1.6605    2.6773   -1.5782 H   0  0  0  0  0  0  0  0  0  0  0  0
   -0.6969    3.2717   -1.1334 H   0  0  0  0  0  0  0  0  0  0  0  0
    0.8252   -1.9825    1.2886 H   0  0  0  0  0  0  0  0  0  0  0  0
   -2.7946    0.5650    1.9088 H   0  0  0  0  0  0  0  0  0  0  0  0
   -3.2467   -1.2267    2.1040 H   0  0  0  0  0  0  0  0  0  0  0  0
    2.5427   -3.1195    0.1063 H   0  0  0  0  0  0  0  0  0  0  0  0
    2.5962   -1.7900   -1.1907 H   0  0  0  0  0  0  0  0  0  0  0  0
  1  3  2  0
  1  5  1  0
  1  2  1  0
  2  4  2  0
  2  8  1  0
  3  7  1  0
  3 12  1  0
  4  6  1  0
  4 11  1  0
  5 13  1  0
  5  9  2  3
  6  7  2  0
  6 14  1  0
  7 15  1  0
  8 16  1  0
  8 10  2  3
  9 17  1  0
  9 18  1  0
 10 20  1  0
 10 19  1  0
M  END
