
     RDKit          3D

 21 21  0  0  0  0  0  0  0  0999 V2000
   -1.0968    0.1865   -1.0060 O   0  0  0  0  0  0  0  0  0  0  0  0
   -2.6535    1.5326    0.0358 O   0  0  0  0  0  0  0  0  0  0  0  0
   -0.4333   -0.8346   -0.2812 C   0  0  0  0  0  0  0  0  0  0  0  0
    0.7915   -0.2632    0.4468 C   0  0  0  0  0  0  0  0  0  0  0  0
    1.8428    0.2525   -0.5441 C   0  0  0  0  0  0  0  0  0  0  0  0
   -2.4186    0.2615   -0.5021 C   0  0  0  0  0  0  0  0  0  0  0  0
    3.0669    0.7976    0.1858 C   0  0  0  0  0  0  0  0  0  0  0  0
   -1.4087   -1.3869    0.6901 C   0  0  0  0  0  0  0  0  0  0  0  0
   -2.5450   -0.7574    0.5621 C   0  0  0  0  0  0  0  0  0  0  0  0
    1.2465   -1.0610    1.0752 H   0  0  0  0  0  0  0  0  0  0  0  0
    0.4716    0.5679    1.1144 H   0  0  0  0  0  0  0  0  0  0  0  0
   -0.1219   -1.6422   -0.9791 H   0  0  0  0  0  0  0  0  0  0  0  0
    2.1631   -0.5743   -1.2150 H   0  0  0  0  0  0  0  0  0  0  0  0
    1.4083    1.0637   -1.1677 H   0  0  0  0  0  0  0  0  0  0  0  0
   -3.1467    0.0411   -1.3145 H   0  0  0  0  0  0  0  0  0  0  0  0
    2.7774    1.6423    0.8467 H   0  0  0  0  0  0  0  0  0  0  0  0
    3.5398   -0.0009    0.7964 H   0  0  0  0  0  0  0  0  0  0  0  0
    3.8086    1.1643   -0.5548 H   0  0  0  0  0  0  0  0  0  0  0  0
   -1.2230   -2.1916    1.3943 H   0  0  0  0  0  0  0  0  0  0  0  0
   -3.4364   -0.9624    1.1462 H   0  0  0  0  0  0  0  0  0  0  0  0
   -2.6326    2.1647   -0.7292 H   0  0  0  0  0  0  0  0  0  0  0  0
  1  3  1  0
  1  6  1  0
  2  6  1  0
  2 21  1  0
  3  8  1  0
  3 12  1  0
  3  4  1  0
  4 11  1  0
  4 10  1  0
  4  5  1  0
  5  7  1  0
  5 13  1  0
  5 14  1  0
  6  9  1  0
  6 15  1  0
  7 18  1  0
  7 16  1  0
  7 17  1  0
  8 19  1  0
  8  9  2  0
  9 20  1  0
M  END
