
     RDKit          3D

 14 14  0  0  0  0  0  0  0  0999 V2000
   -0.3363   -1.1324    0.1034 C   0  0  0  0  0  0  0  0  0  0  0  0
    1.9473    0.1435   -0.3193 C   0  0  0  0  0  0  0  0  0  0  0  0
    0.4727    0.1103   -0.0808 C   0  0  0  0  0  0  0  0  0  0  0  0
   -1.7011   -0.5580    0.2978 C   0  0  0  0  0  0  0  0  0  0  0  0
   -0.2950    1.1866   -0.0043 C   0  0  0  0  0  0  0  0  0  0  0  0
   -1.6626    0.7634    0.2340 C   0  0  0  0  0  0  0  0  0  0  0  0
   -0.3010   -1.7699   -0.8052 H   0  0  0  0  0  0  0  0  0  0  0  0
   -0.0098   -1.6910    1.0059 H   0  0  0  0  0  0  0  0  0  0  0  0
    2.4462    0.7112    0.4940 H   0  0  0  0  0  0  0  0  0  0  0  0
    2.3554   -0.8888   -0.3399 H   0  0  0  0  0  0  0  0  0  0  0  0
    2.1590    0.6333   -1.2929 H   0  0  0  0  0  0  0  0  0  0  0  0
   -2.6013   -1.1337    0.4675 H   0  0  0  0  0  0  0  0  0  0  0  0
    0.0450    2.2094   -0.1035 H   0  0  0  0  0  0  0  0  0  0  0  0
   -2.5185    1.4159    0.3432 H   0  0  0  0  0  0  0  0  0  0  0  0
  1  4  1  0
  1  7  1  0
  1  8  1  0
  1  3  1  0
  2  3  1  0
  2  9  1  0
  2 10  1  0
  2 11  1  0
  3  5  2  0
  4  6  2  0
  4 12  1  0
  5 13  1  0
  5  6  1  0
  6 14  1  0
M  END
