
     RDKit          3D

 19 20  0  0  0  0  0  0  0  0999 V2000
   -2.7131    0.6010   -0.3428 O   0  0  0  0  0  0  0  0  0  0  0  0
   -2.1391    1.7668   -0.7378 O   0  0  0  0  0  0  0  0  0  0  0  0
   -1.5971    0.1528    0.2610 C   0  0  0  0  0  0  0  0  0  0  0  0
   -1.0247   -1.1110   -0.3878 C   0  0  0  0  0  0  0  0  0  0  0  0
    0.3547   -1.4713    0.1988 C   0  0  0  0  0  0  0  0  0  0  0  0
    1.4866   -0.5012   -0.2089 C   0  0  0  0  0  0  0  0  0  0  0  0
    1.4167    0.8707    0.4947 C   0  0  0  0  0  0  0  0  0  0  0  0
   -0.8887    1.3351   -0.1692 C   0  0  0  0  0  0  0  0  0  0  0  0
    0.3652    1.7571   -0.1064 C   0  0  0  0  0  0  0  0  0  0  0  0
   -1.7146    0.0920    1.3649 H   0  0  0  0  0  0  0  0  0  0  0  0
   -1.7246   -1.9507   -0.1879 H   0  0  0  0  0  0  0  0  0  0  0  0
   -0.9495   -0.9933   -1.4923 H   0  0  0  0  0  0  0  0  0  0  0  0
    0.6249   -2.4835   -0.1728 H   0  0  0  0  0  0  0  0  0  0  0  0
    0.2921   -1.5406    1.3069 H   0  0  0  0  0  0  0  0  0  0  0  0
    2.4523   -0.9750    0.0716 H   0  0  0  0  0  0  0  0  0  0  0  0
    1.5003   -0.3690   -1.3133 H   0  0  0  0  0  0  0  0  0  0  0  0
    1.2215    0.7376    1.5810 H   0  0  0  0  0  0  0  0  0  0  0  0
    2.4005    1.3766    0.3903 H   0  0  0  0  0  0  0  0  0  0  0  0
    0.6366    2.7060   -0.5502 H   0  0  0  0  0  0  0  0  0  0  0  0
  1  3  1  0
  1  2  1  0
  2  8  1  0
  3  8  1  0
  3 10  1  0
  3  4  1  0
  4 12  1  0
  4 11  1  0
  4  5  1  0
  5 14  1  0
  5 13  1  0
  5  6  1  0
  6  7  1  0
  6 15  1  0
  6 16  1  0
  7  9  1  0
  7 18  1  0
  7 17  1  0
  8  9  2  0
  9 19  1  0
M  END
