
     RDKit          3D

 15 15  0  0  0  0  0  0  0  0999 V2000
    0.2203   -0.2717    0.5103 C   0  0  0  0  0  0  0  0  0  0  0  0
   -0.7451    0.7168    1.0821 C   0  0  0  0  0  0  0  0  0  0  0  0
   -0.6876   -1.1050   -0.3368 C   0  0  0  0  0  0  0  0  0  0  0  0
    1.2518    0.4217   -0.3382 C   0  0  0  0  0  0  0  0  0  0  0  0
   -1.9681    0.4810    0.6362 C   0  0  0  0  0  0  0  0  0  0  0  0
   -1.9320   -0.6633   -0.2551 C   0  0  0  0  0  0  0  0  0  0  0  0
    2.5601    0.2830   -0.1070 C   0  0  0  0  0  0  0  0  0  0  0  0
    0.6711   -0.8875    1.3192 H   0  0  0  0  0  0  0  0  0  0  0  0
   -0.4912    1.5127    1.7703 H   0  0  0  0  0  0  0  0  0  0  0  0
   -0.3817   -1.9561   -0.9314 H   0  0  0  0  0  0  0  0  0  0  0  0
    0.9262    1.0526   -1.1614 H   0  0  0  0  0  0  0  0  0  0  0  0
   -2.8478    1.0519    0.9016 H   0  0  0  0  0  0  0  0  0  0  0  0
   -2.7801   -1.0944   -0.7702 H   0  0  0  0  0  0  0  0  0  0  0  0
    2.9249   -0.3382    0.7053 H   0  0  0  0  0  0  0  0  0  0  0  0
    3.2791    0.7965   -0.7371 H   0  0  0  0  0  0  0  0  0  0  0  0
  1  2  1  0
  1  8  1  0
  1  4  1  0
  1  3  1  0
  2  9  1  0
  2  5  2  0
  3  6  2  0
  3 10  1  0
  4  7  2  3
  4 11  1  0
  5  6  1  0
  5 12  1  0
  6 13  1  0
  7 15  1  0
  7 14  1  0
M  END
