
     RDKit          3D

 22 23  0  0  0  0  0  0  0  0999 V2000
   -0.6969   -0.5959    0.3030 C   0  0  0  0  0  0  0  0  0  0  0  0
   -0.3079    0.8439    0.5602 C   0  0  0  0  0  0  0  0  0  0  0  0
   -2.0928   -0.5572   -0.2689 C   0  0  0  0  0  0  0  0  0  0  0  0
    2.4244   -0.5833    0.3201 C   0  0  0  0  0  0  0  0  0  0  0  0
    0.2318   -1.2693   -0.6570 C   0  0  0  0  0  0  0  0  0  0  0  0
   -1.5616    1.5552    0.2503 C   0  0  0  0  0  0  0  0  0  0  0  0
    0.8449    1.2800   -0.2521 C   0  0  0  0  0  0  0  0  0  0  0  0
   -2.6121    0.7264    0.3105 C   0  0  0  0  0  0  0  0  0  0  0  0
    2.0856    0.8127   -0.1091 C   0  0  0  0  0  0  0  0  0  0  0  0
    1.5336   -1.5055   -0.4564 C   0  0  0  0  0  0  0  0  0  0  0  0
   -0.6510   -1.2100    1.2278 H   0  0  0  0  0  0  0  0  0  0  0  0
   -0.0395    0.9509    1.6375 H   0  0  0  0  0  0  0  0  0  0  0  0
   -2.0291   -0.4570   -1.3597 H   0  0  0  0  0  0  0  0  0  0  0  0
   -2.6744   -1.4319    0.0567 H   0  0  0  0  0  0  0  0  0  0  0  0
    3.4889   -0.8157    0.2035 H   0  0  0  0  0  0  0  0  0  0  0  0
    2.0684   -0.6696    1.3771 H   0  0  0  0  0  0  0  0  0  0  0  0
    0.7016    2.1736   -0.8692 H   0  0  0  0  0  0  0  0  0  0  0  0
   -0.3023   -1.9266   -1.3444 H   0  0  0  0  0  0  0  0  0  0  0  0
   -1.7171    2.6379    0.1958 H   0  0  0  0  0  0  0  0  0  0  0  0
   -3.5181    0.8166    0.9186 H   0  0  0  0  0  0  0  0  0  0  0  0
    1.9911   -2.0329   -1.2871 H   0  0  0  0  0  0  0  0  0  0  0  0
    2.8327    1.2577   -0.7572 H   0  0  0  0  0  0  0  0  0  0  0  0
  1 11  1  0
  1  2  1  0
  1  5  1  0
  1  3  1  0
  2  6  1  0
  2 12  1  0
  2  7  1  0
  3 13  1  0
  3 14  1  0
  3  8  1  0
  4 15  1  0
  4 10  1  0
  4 16  1  0
  4  9  1  0
  5 18  1  0
  5 10  2  0
  6 19  1  0
  6  8  2  0
  7 17  1  0
  7  9  2  0
  8 20  1  0
  9 22  1  0
 10 21  1  0
M  END
