
     RDKit          3D

 22 23  0  0  0  0  0  0  0  0999 V2000
   -1.2728    0.2199   -0.3778 C   0  0  0  0  0  0  0  0  0  0  0  0
    0.0860    0.4922    0.2898 C   0  0  0  0  0  0  0  0  0  0  0  0
   -1.6292   -1.2208    0.0406 C   0  0  0  0  0  0  0  0  0  0  0  0
   -2.3458    1.2311    0.0366 C   0  0  0  0  0  0  0  0  0  0  0  0
    0.6089   -0.8781    0.5423 C   0  0  0  0  0  0  0  0  0  0  0  0
   -0.3245   -1.8052    0.4525 C   0  0  0  0  0  0  0  0  0  0  0  0
    1.0491    1.2950   -0.5557 C   0  0  0  0  0  0  0  0  0  0  0  0
    2.0513   -1.1487    0.5763 C   0  0  0  0  0  0  0  0  0  0  0  0
    2.3526    0.9754   -0.6169 C   0  0  0  0  0  0  0  0  0  0  0  0
    2.8794   -0.2505    0.0319 C   0  0  0  0  0  0  0  0  0  0  0  0
   -1.1607    0.2483   -1.4863 H   0  0  0  0  0  0  0  0  0  0  0  0
   -0.0441    1.0039    1.2692 H   0  0  0  0  0  0  0  0  0  0  0  0
   -2.0537   -1.7852   -0.8173 H   0  0  0  0  0  0  0  0  0  0  0  0
   -2.3318   -1.2534    0.9016 H   0  0  0  0  0  0  0  0  0  0  0  0
   -2.4958    1.2203    1.1375 H   0  0  0  0  0  0  0  0  0  0  0  0
   -3.3082    0.9835   -0.4594 H   0  0  0  0  0  0  0  0  0  0  0  0
   -2.0409    2.2527   -0.2746 H   0  0  0  0  0  0  0  0  0  0  0  0
    0.7027    2.2047   -1.0301 H   0  0  0  0  0  0  0  0  0  0  0  0
   -0.1328   -2.8680    0.5299 H   0  0  0  0  0  0  0  0  0  0  0  0
    3.9434   -0.4477    0.0077 H   0  0  0  0  0  0  0  0  0  0  0  0
    3.0337    1.6152   -1.1630 H   0  0  0  0  0  0  0  0  0  0  0  0
    2.4331   -2.0845    0.9652 H   0  0  0  0  0  0  0  0  0  0  0  0
  1  2  1  0
  1  4  1  0
  1  3  1  0
  1 11  1  0
  2  5  1  0
  2  7  1  0
  2 12  1  0
  3 13  1  0
  3  6  1  0
  3 14  1  0
  4 15  1  0
  4 16  1  0
  4 17  1  0
  5  6  2  0
  5  8  1  0
  6 19  1  0
  7  9  2  0
  7 18  1  0
  8 10  2  0
  8 22  1  0
  9 21  1  0
  9 10  1  0
 10 20  1  0
M  END
