
     RDKit          3D

 21 22  0  0  0  0  0  0  0  0999 V2000
    0.1858    2.5582   -0.5156 O   0  0  0  0  0  0  0  0  0  0  0  0
    1.9068   -1.8216   -0.0371 O   0  0  0  0  0  0  0  0  0  0  0  0
   -0.2434    1.5908    0.5455 C   0  0  0  0  0  0  0  0  0  0  0  0
    1.0092    1.5162   -0.1764 C   0  0  0  0  0  0  0  0  0  0  0  0
    0.8867   -0.8953    0.0349 C   0  0  0  0  0  0  0  0  0  0  0  0
    1.0656    0.2400   -0.9588 C   0  0  0  0  0  0  0  0  0  0  0  0
   -1.4003    0.8063    0.0086 C   0  0  0  0  0  0  0  0  0  0  0  0
   -0.4851   -1.5004   -0.2160 C   0  0  0  0  0  0  0  0  0  0  0  0
   -1.4765   -0.6084    0.5163 C   0  0  0  0  0  0  0  0  0  0  0  0
   -0.3208    2.0617    1.5344 H   0  0  0  0  0  0  0  0  0  0  0  0
    1.9454    1.6978    0.4097 H   0  0  0  0  0  0  0  0  0  0  0  0
    0.8628   -0.5258    1.0906 H   0  0  0  0  0  0  0  0  0  0  0  0
   -2.5089   -0.9542    0.3533 H   0  0  0  0  0  0  0  0  0  0  0  0
   -1.2583   -0.6794    1.6055 H   0  0  0  0  0  0  0  0  0  0  0  0
   -0.7068   -1.5213   -1.2926 H   0  0  0  0  0  0  0  0  0  0  0  0
   -0.5345   -2.5158    0.2022 H   0  0  0  0  0  0  0  0  0  0  0  0
   -1.4757    0.7933   -1.0888 H   0  0  0  0  0  0  0  0  0  0  0  0
   -2.3363    1.3068    0.3663 H   0  0  0  0  0  0  0  0  0  0  0  0
    0.3607    0.1856   -1.8003 H   0  0  0  0  0  0  0  0  0  0  0  0
    2.0899    0.1284   -1.3942 H   0  0  0  0  0  0  0  0  0  0  0  0
    2.4338   -1.8630    0.8124 H   0  0  0  0  0  0  0  0  0  0  0  0
  1  3  1  0
  1  4  1  0
  2  5  1  0
  2 21  1  0
  3 10  1  0
  3  4  1  0
  3  7  1  0
  4  6  1  0
  4 11  1  0
  5  8  1  0
  5  6  1  0
  5 12  1  0
  6 20  1  0
  6 19  1  0
  7  9  1  0
  7 17  1  0
  7 18  1  0
  8 16  1  0
  8  9  1  0
  8 15  1  0
  9 13  1  0
  9 14  1  0
M  END
