
     RDKit          3D

 21 21  0  0  0  0  0  0  0  0999 V2000
   -1.9134    0.1772    0.0381 C   0  0  0  0  0  0  0  0  0  0  0  0
   -0.8168   -0.8928    0.0994 C   0  0  0  0  0  0  0  0  0  0  0  0
   -3.3004   -0.4475    0.1573 C   0  0  0  0  0  0  0  0  0  0  0  0
    0.5523   -0.2694    0.0065 C   0  0  0  0  0  0  0  0  0  0  0  0
    1.4047   -0.2487    1.1240 C   0  0  0  0  0  0  0  0  0  0  0  0
    0.9956    0.2874   -1.2058 C   0  0  0  0  0  0  0  0  0  0  0  0
    2.6757    0.3272    1.0304 C   0  0  0  0  0  0  0  0  0  0  0  0
    3.1064    0.8827   -0.1774 C   0  0  0  0  0  0  0  0  0  0  0  0
    2.2674    0.8620   -1.2947 C   0  0  0  0  0  0  0  0  0  0  0  0
   -1.8527    0.7292   -0.9249 H   0  0  0  0  0  0  0  0  0  0  0  0
   -1.7725    0.9031    0.8687 H   0  0  0  0  0  0  0  0  0  0  0  0
   -0.9176   -1.4605    1.0508 H   0  0  0  0  0  0  0  0  0  0  0  0
   -0.9444   -1.6166   -0.7351 H   0  0  0  0  0  0  0  0  0  0  0  0
   -3.4023   -0.9798    1.1270 H   0  0  0  0  0  0  0  0  0  0  0  0
   -4.0724    0.3491    0.1071 H   0  0  0  0  0  0  0  0  0  0  0  0
   -3.4737   -1.1631   -0.6745 H   0  0  0  0  0  0  0  0  0  0  0  0
    1.0857   -0.6731    2.0679 H   0  0  0  0  0  0  0  0  0  0  0  0
    3.3270    0.3429    1.8947 H   0  0  0  0  0  0  0  0  0  0  0  0
    4.0905    1.3277   -0.2479 H   0  0  0  0  0  0  0  0  0  0  0  0
    2.6030    1.2900   -2.2304 H   0  0  0  0  0  0  0  0  0  0  0  0
    0.3580    0.2730   -2.0810 H   0  0  0  0  0  0  0  0  0  0  0  0
  1  2  1  0
  1 10  1  0
  1 11  1  0
  1  3  1  0
  2 12  1  0
  2 13  1  0
  2  4  1  0
  3 14  1  0
  3 15  1  0
  3 16  1  0
  4  5  2  0
  4  6  1  0
  5 17  1  0
  5  7  1  0
  6 21  1  0
  6  9  2  0
  7 18  1  0
  7  8  2  0
  8 19  1  0
  8  9  1  0
  9 20  1  0
M  END
