
     RDKit          3D

 19 20  0  0  0  0  0  0  0  0999 V2000
   -0.2227   -0.6130   -0.5772 C   0  0  0  0  0  0  0  0  0  0  0  0
   -1.5932   -0.8272    0.0723 C   0  0  0  0  0  0  0  0  0  0  0  0
   -2.1800    0.5831    0.2311 C   0  0  0  0  0  0  0  0  0  0  0  0
    0.0643    0.8189   -0.2948 C   0  0  0  0  0  0  0  0  0  0  0  0
   -1.0031    1.4833    0.1004 C   0  0  0  0  0  0  0  0  0  0  0  0
    0.8737   -1.5052   -0.0416 C   0  0  0  0  0  0  0  0  0  0  0  0
    1.4428    1.3089   -0.1731 C   0  0  0  0  0  0  0  0  0  0  0  0
    2.1093   -1.0273    0.1823 C   0  0  0  0  0  0  0  0  0  0  0  0
    2.4169    0.4176    0.0416 C   0  0  0  0  0  0  0  0  0  0  0  0
   -0.3017   -0.7564   -1.6772 H   0  0  0  0  0  0  0  0  0  0  0  0
   -2.2453   -1.4655   -0.5625 H   0  0  0  0  0  0  0  0  0  0  0  0
   -1.4850   -1.2975    1.0756 H   0  0  0  0  0  0  0  0  0  0  0  0
   -2.6538    0.7036    1.2288 H   0  0  0  0  0  0  0  0  0  0  0  0
   -2.9140    0.8060   -0.5728 H   0  0  0  0  0  0  0  0  0  0  0  0
    0.6892   -2.5677    0.0571 H   0  0  0  0  0  0  0  0  0  0  0  0
   -0.9887    2.5152    0.4278 H   0  0  0  0  0  0  0  0  0  0  0  0
    1.6594    2.3699   -0.1813 H   0  0  0  0  0  0  0  0  0  0  0  0
    3.4352    0.7585    0.1771 H   0  0  0  0  0  0  0  0  0  0  0  0
    2.8966   -1.7051    0.4864 H   0  0  0  0  0  0  0  0  0  0  0  0
  1  4  1  0
  1  2  1  0
  1 10  1  0
  1  6  1  0
  2 12  1  0
  2  3  1  0
  2 11  1  0
  3  5  1  0
  3 13  1  0
  3 14  1  0
  4  5  2  0
  4  7  1  0
  5 16  1  0
  6 15  1  0
  6  8  2  0
  7  9  2  0
  7 17  1  0
  8  9  1  0
  8 19  1  0
  9 18  1  0
M  END
