
     RDKit          3D

 20 21  0  0  0  0  0  0  0  0999 V2000
    1.1542    0.4568    0.1856 C   0  0  0  0  0  0  0  0  0  0  0  0
    0.8011   -0.0310    1.5131 C   0  0  0  0  0  0  0  0  0  0  0  0
   -0.2819    0.3673   -0.2078 C   0  0  0  0  0  0  0  0  0  0  0  0
   -0.6260   -0.1021    1.0867 C   0  0  0  0  0  0  0  0  0  0  0  0
    2.0102   -0.5022   -0.6040 C   0  0  0  0  0  0  0  0  0  0  0  0
   -1.2133    0.5566   -1.2093 C   0  0  0  0  0  0  0  0  0  0  0  0
   -1.9205   -0.4106    1.4533 C   0  0  0  0  0  0  0  0  0  0  0  0
   -2.8984   -0.2276    0.4439 C   0  0  0  0  0  0  0  0  0  0  0  0
   -2.5516    0.2466   -0.8614 C   0  0  0  0  0  0  0  0  0  0  0  0
    3.1935   -0.1323   -1.0996 C   0  0  0  0  0  0  0  0  0  0  0  0
    1.5192    1.5090    0.1862 H   0  0  0  0  0  0  0  0  0  0  0  0
    0.9499    0.7274    2.3127 H   0  0  0  0  0  0  0  0  0  0  0  0
    1.1999   -1.0372    1.7737 H   0  0  0  0  0  0  0  0  0  0  0  0
    1.6675   -1.5217   -0.7631 H   0  0  0  0  0  0  0  0  0  0  0  0
   -3.3308    0.3724   -1.6017 H   0  0  0  0  0  0  0  0  0  0  0  0
   -3.9333   -0.4519    0.6664 H   0  0  0  0  0  0  0  0  0  0  0  0
   -2.1688   -0.7679    2.4435 H   0  0  0  0  0  0  0  0  0  0  0  0
   -0.9375    0.9171   -2.1910 H   0  0  0  0  0  0  0  0  0  0  0  0
    3.7936   -0.8432   -1.6581 H   0  0  0  0  0  0  0  0  0  0  0  0
    3.5730    0.8745   -0.9539 H   0  0  0  0  0  0  0  0  0  0  0  0
  1  2  1  0
  1 11  1  0
  1  5  1  0
  1  3  1  0
  2  4  1  0
  2 12  1  0
  2 13  1  0
  3  4  2  0
  3  6  1  0
  4  7  1  0
  5 14  1  0
  5 10  2  3
  6  9  2  0
  6 18  1  0
  7 17  1  0
  7  8  2  0
  8  9  1  0
  8 16  1  0
  9 15  1  0
 10 19  1  0
 10 20  1  0
M  END
