
     RDKit          3D

 20 21  0  0  0  0  0  0  0  0999 V2000
    1.1093    0.1823    0.1277 C   0  0  0  0  0  0  0  0  0  0  0  0
    0.7991   -0.8981    1.1477 C   0  0  0  0  0  0  0  0  0  0  0  0
   -0.2793   -0.0716   -0.3012 C   0  0  0  0  0  0  0  0  0  0  0  0
   -0.5918   -0.3717    1.0192 C   0  0  0  0  0  0  0  0  0  0  0  0
    2.0678   -0.2112   -0.9300 C   0  0  0  0  0  0  0  0  0  0  0  0
   -1.3606   -0.0046   -1.1669 C   0  0  0  0  0  0  0  0  0  0  0  0
   -1.8612   -0.1304    1.5272 C   0  0  0  0  0  0  0  0  0  0  0  0
   -2.8721    0.3019    0.6775 C   0  0  0  0  0  0  0  0  0  0  0  0
   -2.6518    0.0498   -0.6713 C   0  0  0  0  0  0  0  0  0  0  0  0
    3.2525    0.4141   -0.9099 C   0  0  0  0  0  0  0  0  0  0  0  0
    1.3034    1.1357    0.6383 H   0  0  0  0  0  0  0  0  0  0  0  0
    1.2329   -0.7344    2.1442 H   0  0  0  0  0  0  0  0  0  0  0  0
    0.8180   -1.9298    0.7586 H   0  0  0  0  0  0  0  0  0  0  0  0
    1.7677   -0.5850   -1.9131 H   0  0  0  0  0  0  0  0  0  0  0  0
   -3.4198    0.4235   -1.3489 H   0  0  0  0  0  0  0  0  0  0  0  0
   -3.6449    0.9884    1.0220 H   0  0  0  0  0  0  0  0  0  0  0  0
   -1.9478    0.1251    2.5821 H   0  0  0  0  0  0  0  0  0  0  0  0
   -1.1278    0.0054   -2.2220 H   0  0  0  0  0  0  0  0  0  0  0  0
    4.1342   -0.1638   -0.6284 H   0  0  0  0  0  0  0  0  0  0  0  0
    3.2725    1.4744   -0.6376 H   0  0  0  0  0  0  0  0  0  0  0  0
  1  2  1  0
  1 11  1  0
  1  5  1  0
  1  3  1  0
  2  4  1  0
  2 12  1  0
  2 13  1  0
  3  4  2  0
  3  6  1  0
  4  7  1  0
  5 14  1  0
  5 10  2  3
  6  9  2  0
  6 18  1  0
  7 17  1  0
  7  8  2  0
  8  9  1  0
  8 16  1  0
  9 15  1  0
 10 19  1  0
 10 20  1  0
M  END
