
     RDKit          3D

 21 21  0  0  0  0  0  0  0  0999 V2000
    2.5416   -0.3764    0.5403 O   0  0  0  0  0  0  0  0  0  0  0  0
   -2.2351    1.7169    0.8924 O   0  0  0  0  0  0  0  0  0  0  0  0
    1.4037   -0.1799   -0.2672 C   0  0  0  0  0  0  0  0  0  0  0  0
    0.4906   -1.3007    0.0458 C   0  0  0  0  0  0  0  0  0  0  0  0
    0.9301    1.1908    0.0354 C   0  0  0  0  0  0  0  0  0  0  0  0
   -0.8691   -1.2629   -0.5565 C   0  0  0  0  0  0  0  0  0  0  0  0
   -1.7898   -0.5081    0.3964 C   0  0  0  0  0  0  0  0  0  0  0  0
   -0.4152    1.5649   -0.4793 C   0  0  0  0  0  0  0  0  0  0  0  0
   -1.4390    0.9408    0.4217 C   0  0  0  0  0  0  0  0  0  0  0  0
    1.7689   -0.2322   -1.3115 H   0  0  0  0  0  0  0  0  0  0  0  0
   -1.2766   -2.3057   -0.5884 H   0  0  0  0  0  0  0  0  0  0  0  0
   -0.8927   -0.8603   -1.5758 H   0  0  0  0  0  0  0  0  0  0  0  0
    0.9867   -2.2388   -0.3078 H   0  0  0  0  0  0  0  0  0  0  0  0
    0.4310   -1.4146    1.1484 H   0  0  0  0  0  0  0  0  0  0  0  0
    0.9188    1.3402    1.1447 H   0  0  0  0  0  0  0  0  0  0  0  0
    1.6559    1.9157   -0.3827 H   0  0  0  0  0  0  0  0  0  0  0  0
   -1.6414   -0.9673    1.3921 H   0  0  0  0  0  0  0  0  0  0  0  0
   -2.8391   -0.6129    0.0651 H   0  0  0  0  0  0  0  0  0  0  0  0
   -0.4924    2.6688   -0.4867 H   0  0  0  0  0  0  0  0  0  0  0  0
   -0.6146    1.1545   -1.4877 H   0  0  0  0  0  0  0  0  0  0  0  0
    3.3780   -0.2326    0.0528 H   0  0  0  0  0  0  0  0  0  0  0  0
  1 21  1  0
  1  3  1  0
  2  9  2  0
  3 10  1  0
  3  4  1  0
  3  5  1  0
  4  6  1  0
  4 14  1  0
  4 13  1  0
  5 15  1  0
  5 16  1  0
  5  8  1  0
  6  7  1  0
  6 12  1  0
  6 11  1  0
  7 17  1  0
  7  9  1  0
  7 18  1  0
  8  9  1  0
  8 20  1  0
  8 19  1  0
M  END
