
     RDKit          3D

 23 23  0  0  0  0  0  0  0  0999 V2000
    2.2481   -0.9521    0.8003 O   0  0  0  0  0  0  0  0  0  0  0  0
   -2.5912    2.1110   -0.0820 O   0  0  0  0  0  0  0  0  0  0  0  0
    3.1035   -0.0166    1.1770 O   0  0  0  0  0  0  0  0  0  0  0  0
    4.1344   -0.1569    0.3678 O   0  0  0  0  0  0  0  0  0  0  0  0
    1.1089   -0.2897    0.2961 C   0  0  0  0  0  0  0  0  0  0  0  0
    0.4145   -1.2402   -0.6952 C   0  0  0  0  0  0  0  0  0  0  0  0
   -0.7366   -0.5881   -1.4750 C   0  0  0  0  0  0  0  0  0  0  0  0
   -1.9459   -0.2590   -0.5892 C   0  0  0  0  0  0  0  0  0  0  0  0
    0.1798    0.0883    1.4689 C   0  0  0  0  0  0  0  0  0  0  0  0
   -1.7499    1.0285    0.1721 C   0  0  0  0  0  0  0  0  0  0  0  0
   -0.7915    1.1736    1.0948 C   0  0  0  0  0  0  0  0  0  0  0  0
    1.4082    0.6300   -0.2645 H   0  0  0  0  0  0  0  0  0  0  0  0
   -1.0666   -1.3087   -2.2548 H   0  0  0  0  0  0  0  0  0  0  0  0
   -0.3795    0.3233   -2.0037 H   0  0  0  0  0  0  0  0  0  0  0  0
    0.0493   -2.1482   -0.1663 H   0  0  0  0  0  0  0  0  0  0  0  0
    1.1714   -1.5811   -1.4355 H   0  0  0  0  0  0  0  0  0  0  0  0
   -2.1597   -1.0919    0.1152 H   0  0  0  0  0  0  0  0  0  0  0  0
   -2.8371   -0.1606   -1.2454 H   0  0  0  0  0  0  0  0  0  0  0  0
    0.7963    0.4689    2.3116 H   0  0  0  0  0  0  0  0  0  0  0  0
   -0.3668   -0.8024    1.8480 H   0  0  0  0  0  0  0  0  0  0  0  0
   -0.7092    2.1230    1.6110 H   0  0  0  0  0  0  0  0  0  0  0  0
   -3.3316    2.0600   -0.7713 H   0  0  0  0  0  0  0  0  0  0  0  0
    4.0515    0.5889   -0.2799 H   0  0  0  0  0  0  0  0  0  0  0  0
  1  5  1  0
  1  3  1  0
  2 22  1  0
  2 10  1  0
  3  4  1  0
  4 23  1  0
  5 12  1  0
  5  9  1  0
  5  6  1  0
  6 15  1  0
  6  7  1  0
  6 16  1  0
  7 13  1  0
  7 14  1  0
  7  8  1  0
  8 18  1  0
  8 17  1  0
  8 10  1  0
  9 19  1  0
  9 20  1  0
  9 11  1  0
 10 11  2  0
 11 21  1  0
M  END
