
     RDKit          3D

 21 21  0  0  0  0  0  0  0  0999 V2000
   -2.7769    1.0978   -0.3684 O   0  0  0  0  0  0  0  0  0  0  0  0
    2.9379    0.3582    0.3019 O   0  0  0  0  0  0  0  0  0  0  0  0
   -0.2371   -1.5290    0.1801 C   0  0  0  0  0  0  0  0  0  0  0  0
   -1.3380   -0.7874   -0.5187 C   0  0  0  0  0  0  0  0  0  0  0  0
    1.1411   -1.1243   -0.2481 C   0  0  0  0  0  0  0  0  0  0  0  0
   -1.5426    0.6128    0.0451 C   0  0  0  0  0  0  0  0  0  0  0  0
    1.5678    0.1487    0.4337 C   0  0  0  0  0  0  0  0  0  0  0  0
   -0.4388    1.4896   -0.4322 C   0  0  0  0  0  0  0  0  0  0  0  0
    0.8481    1.3363   -0.1231 C   0  0  0  0  0  0  0  0  0  0  0  0
   -0.3570   -2.5980   -0.0462 H   0  0  0  0  0  0  0  0  0  0  0  0
   -0.3316   -1.3191    1.2609 H   0  0  0  0  0  0  0  0  0  0  0  0
   -1.2526   -0.7854   -1.6200 H   0  0  0  0  0  0  0  0  0  0  0  0
   -2.2863   -1.3384   -0.2921 H   0  0  0  0  0  0  0  0  0  0  0  0
    1.2834   -1.0711   -1.3365 H   0  0  0  0  0  0  0  0  0  0  0  0
    1.8383   -1.9261    0.1073 H   0  0  0  0  0  0  0  0  0  0  0  0
   -1.5715    0.5079    1.1423 H   0  0  0  0  0  0  0  0  0  0  0  0
    1.2957    0.0241    1.5122 H   0  0  0  0  0  0  0  0  0  0  0  0
   -0.6273    2.2047   -1.2222 H   0  0  0  0  0  0  0  0  0  0  0  0
    1.4074    2.2777   -0.1023 H   0  0  0  0  0  0  0  0  0  0  0  0
   -2.9268    1.9486    0.1298 H   0  0  0  0  0  0  0  0  0  0  0  0
    3.3667    0.4724    1.1964 H   0  0  0  0  0  0  0  0  0  0  0  0
  1 20  1  0
  1  6  1  0
  2 21  1  0
  2  7  1  0
  3 10  1  0
  3 11  1  0
  3  5  1  0
  3  4  1  0
  4 12  1  0
  4 13  1  0
  4  6  1  0
  5 15  1  0
  5  7  1  0
  5 14  1  0
  6 16  1  0
  6  8  1  0
  7 17  1  0
  7  9  1  0
  8 18  1  0
  8  9  2  0
  9 19  1  0
M  END
