
     RDKit          3D

 20 21  0  0  0  0  0  0  0  0999 V2000
   -0.3125   -0.0340   -0.2068 C   0  0  0  0  0  0  0  0  0  0  0  0
    0.4304   -1.3095    0.2613 C   0  0  0  0  0  0  0  0  0  0  0  0
   -0.9392    0.6910    0.9489 C   0  0  0  0  0  0  0  0  0  0  0  0
    0.5973    0.8997   -0.9731 C   0  0  0  0  0  0  0  0  0  0  0  0
   -1.5287   -0.3818   -1.0132 C   0  0  0  0  0  0  0  0  0  0  0  0
    1.8105   -0.9938    0.7774 C   0  0  0  0  0  0  0  0  0  0  0  0
    1.9055    0.9521   -0.7005 C   0  0  0  0  0  0  0  0  0  0  0  0
   -2.2540    0.7391    0.8100 C   0  0  0  0  0  0  0  0  0  0  0  0
   -2.6238    0.0663   -0.4209 C   0  0  0  0  0  0  0  0  0  0  0  0
    2.5078    0.0350    0.2847 C   0  0  0  0  0  0  0  0  0  0  0  0
    0.5442   -2.0104   -0.5945 H   0  0  0  0  0  0  0  0  0  0  0  0
   -0.1503   -1.8358    1.0505 H   0  0  0  0  0  0  0  0  0  0  0  0
   -0.4013    1.1179    1.7859 H   0  0  0  0  0  0  0  0  0  0  0  0
    0.1761    1.6059   -1.6793 H   0  0  0  0  0  0  0  0  0  0  0  0
   -1.5241   -0.9215   -1.9516 H   0  0  0  0  0  0  0  0  0  0  0  0
    2.2712   -1.6560    1.4994 H   0  0  0  0  0  0  0  0  0  0  0  0
   -2.9361    1.2059    1.5079 H   0  0  0  0  0  0  0  0  0  0  0  0
    2.5298    1.6843   -1.1963 H   0  0  0  0  0  0  0  0  0  0  0  0
    3.5265    0.2002    0.6110 H   0  0  0  0  0  0  0  0  0  0  0  0
   -3.6295   -0.0545   -0.8007 H   0  0  0  0  0  0  0  0  0  0  0  0
  1  5  1  0
  1  3  1  0
  1  4  1  0
  1  2  1  0
  2  6  1  0
  2 11  1  0
  2 12  1  0
  3  8  2  0
  3 13  1  0
  4 14  1  0
  4  7  2  0
  5  9  2  0
  5 15  1  0
  6 10  2  0
  6 16  1  0
  7 10  1  0
  7 18  1  0
  8  9  1  0
  8 17  1  0
  9 20  1  0
 10 19  1  0
M  END
