
     RDKit          3D

 19 19  0  0  0  0  0  0  0  0999 V2000
    0.2700   -0.4069   -0.0860 C   0  0  0  0  0  0  0  0  0  0  0  0
   -1.2461   -0.4450    0.1305 C   0  0  0  0  0  0  0  0  0  0  0  0
   -0.3081   -0.2643    1.3232 C   0  0  0  0  0  0  0  0  0  0  0  0
    0.9511   -1.7433   -0.3895 C   0  0  0  0  0  0  0  0  0  0  0  0
   -2.0633    0.7991   -0.2358 C   0  0  0  0  0  0  0  0  0  0  0  0
    0.8844    0.8407   -0.6686 C   0  0  0  0  0  0  0  0  0  0  0  0
    1.9526    1.4162   -0.1112 C   0  0  0  0  0  0  0  0  0  0  0  0
   -1.7334   -1.4421    0.0723 H   0  0  0  0  0  0  0  0  0  0  0  0
   -0.2275   -1.1652    1.9683 H   0  0  0  0  0  0  0  0  0  0  0  0
   -0.2731    0.7590    1.7562 H   0  0  0  0  0  0  0  0  0  0  0  0
    0.9749   -1.9033   -1.4877 H   0  0  0  0  0  0  0  0  0  0  0  0
    0.4177   -2.5980    0.0796 H   0  0  0  0  0  0  0  0  0  0  0  0
   -1.5552    1.7483    0.0378 H   0  0  0  0  0  0  0  0  0  0  0  0
   -3.0367    0.7607    0.2955 H   0  0  0  0  0  0  0  0  0  0  0  0
    1.9931   -1.7246   -0.0069 H   0  0  0  0  0  0  0  0  0  0  0  0
   -2.2569    0.7981   -1.3285 H   0  0  0  0  0  0  0  0  0  0  0  0
    0.4699    1.2593   -1.5806 H   0  0  0  0  0  0  0  0  0  0  0  0
    2.3995    1.0071    0.7900 H   0  0  0  0  0  0  0  0  0  0  0  0
    2.3868    2.3041   -0.5588 H   0  0  0  0  0  0  0  0  0  0  0  0
  1  4  1  0
  1  6  1  0
  1  2  1  0
  1  3  1  0
  2  8  1  0
  2  3  1  0
  2  5  1  0
  3 10  1  0
  3  9  1  0
  4 12  1  0
  4 11  1  0
  4 15  1  0
  5 14  1  0
  5 13  1  0
  5 16  1  0
  6 17  1  0
  6  7  2  3
  7 19  1  0
  7 18  1  0
M  END
