
     RDKit          3D

 17 18  0  0  0  0  0  0  0  0999 V2000
    0.2111   -0.5052   -0.5772 C   0  0  0  0  0  0  0  0  0  0  0  0
    1.5293   -0.8377    0.0410 C   0  0  0  0  0  0  0  0  0  0  0  0
   -1.0211   -0.9302    0.1854 C   0  0  0  0  0  0  0  0  0  0  0  0
    1.7846    0.6395    0.2038 C   0  0  0  0  0  0  0  0  0  0  0  0
   -1.8907    0.3041   -0.0252 C   0  0  0  0  0  0  0  0  0  0  0  0
    0.3494    0.9066   -0.0952 C   0  0  0  0  0  0  0  0  0  0  0  0
   -0.8774    1.4106   -0.0588 C   0  0  0  0  0  0  0  0  0  0  0  0
    0.1022   -0.6255   -1.6608 H   0  0  0  0  0  0  0  0  0  0  0  0
    1.5216   -1.4326    0.9640 H   0  0  0  0  0  0  0  0  0  0  0  0
    2.2071   -1.3232   -0.7054 H   0  0  0  0  0  0  0  0  0  0  0  0
   -0.8375   -1.0271    1.2637 H   0  0  0  0  0  0  0  0  0  0  0  0
   -1.5271   -1.7870   -0.2787 H   0  0  0  0  0  0  0  0  0  0  0  0
    2.3960    1.1134   -0.5889 H   0  0  0  0  0  0  0  0  0  0  0  0
    2.0797    0.8749    1.2402 H   0  0  0  0  0  0  0  0  0  0  0  0
   -2.5693    0.4844    0.8185 H   0  0  0  0  0  0  0  0  0  0  0  0
   -2.4051    0.2971   -0.9952 H   0  0  0  0  0  0  0  0  0  0  0  0
   -1.0527    2.4379    0.2687 H   0  0  0  0  0  0  0  0  0  0  0  0
  1  2  1  0
  1  6  1  0
  1  8  1  0
  1  3  1  0
  2  9  1  0
  2  4  1  0
  2 10  1  0
  3 11  1  0
  3  5  1  0
  3 12  1  0
  4 13  1  0
  4 14  1  0
  4  6  1  0
  5 15  1  0
  5 16  1  0
  5  7  1  0
  6  7  2  0
  7 17  1  0
M  END
