
     RDKit          3D

 20 20  0  0  0  0  0  0  0  0999 V2000
   -2.3275    0.3783   -0.1314 C   0  0  0  0  0  0  0  0  0  0  0  0
   -0.9336    0.9720   -0.1315 C   0  0  0  0  0  0  0  0  0  0  0  0
    0.2678    0.0775   -0.1292 C   0  0  0  0  0  0  0  0  0  0  0  0
   -2.3556   -1.1123    0.0583 C   0  0  0  0  0  0  0  0  0  0  0  0
    0.0884   -1.2491    0.0123 C   0  0  0  0  0  0  0  0  0  0  0  0
   -1.2478   -1.8488    0.1332 C   0  0  0  0  0  0  0  0  0  0  0  0
    1.6378    0.6276   -0.3322 C   0  0  0  0  0  0  0  0  0  0  0  0
   -0.8291    2.3080   -0.0986 C   0  0  0  0  0  0  0  0  0  0  0  0
    3.7921   -0.6509    0.4033 C   0  0  0  0  0  0  0  0  0  0  0  0
    2.7174   -0.0131    0.0362 C   0  0  0  0  0  0  0  0  0  0  0  0
   -2.9139    0.8298    0.6982 H   0  0  0  0  0  0  0  0  0  0  0  0
   -2.8321    0.6269   -1.0894 H   0  0  0  0  0  0  0  0  0  0  0  0
   -3.3180   -1.6034    0.1314 H   0  0  0  0  0  0  0  0  0  0  0  0
    0.9328   -1.9271    0.0094 H   0  0  0  0  0  0  0  0  0  0  0  0
   -1.3303   -2.9204    0.2636 H   0  0  0  0  0  0  0  0  0  0  0  0
    1.7730    1.5882   -0.8073 H   0  0  0  0  0  0  0  0  0  0  0  0
   -1.7169    2.9291   -0.0977 H   0  0  0  0  0  0  0  0  0  0  0  0
    0.1198    2.8190   -0.0398 H   0  0  0  0  0  0  0  0  0  0  0  0
    4.7573   -0.1681    0.3347 H   0  0  0  0  0  0  0  0  0  0  0  0
    3.7185   -1.6631    0.7765 H   0  0  0  0  0  0  0  0  0  0  0  0
  1  2  1  0
  1 12  1  0
  1 11  1  0
  1  4  1  0
  2  3  1  0
  2  8  2  3
  3  5  2  0
  3  7  1  0
  4  6  2  0
  4 13  1  0
  5 14  1  0
  5  6  1  0
  6 15  1  0
  7 10  2  3
  7 16  1  0
  8 18  1  0
  8 17  1  0
  9 10  2  3
  9 19  1  0
  9 20  1  0
M  END
