
     RDKit          3D

 19 20  0  0  0  0  0  0  0  0999 V2000
   -1.3925   -2.1367    0.2355 O   0  0  0  0  0  0  0  0  0  0  0  0
   -2.3178   -1.1713    0.1752 O   0  0  0  0  0  0  0  0  0  0  0  0
   -0.4216   -1.3490   -0.3894 C   0  0  0  0  0  0  0  0  0  0  0  0
   -1.4491   -0.2742   -0.4528 C   0  0  0  0  0  0  0  0  0  0  0  0
    0.7831   -1.1147    0.5321 C   0  0  0  0  0  0  0  0  0  0  0  0
   -1.2137    0.9665    0.4153 C   0  0  0  0  0  0  0  0  0  0  0  0
    1.7456   -0.0658   -0.0362 C   0  0  0  0  0  0  0  0  0  0  0  0
    1.2086    1.3372   -0.2505 C   0  0  0  0  0  0  0  0  0  0  0  0
   -0.0545    1.7802   -0.0882 C   0  0  0  0  0  0  0  0  0  0  0  0
   -0.1514   -1.7601   -1.3870 H   0  0  0  0  0  0  0  0  0  0  0  0
   -1.7840   -0.0436   -1.4882 H   0  0  0  0  0  0  0  0  0  0  0  0
    0.4801   -0.8489    1.5661 H   0  0  0  0  0  0  0  0  0  0  0  0
    1.3348   -2.0760    0.6151 H   0  0  0  0  0  0  0  0  0  0  0  0
    2.1384   -0.4334   -1.0087 H   0  0  0  0  0  0  0  0  0  0  0  0
    2.6123    0.0090    0.6547 H   0  0  0  0  0  0  0  0  0  0  0  0
   -2.1293    1.5944    0.3724 H   0  0  0  0  0  0  0  0  0  0  0  0
   -1.0665    0.7085    1.4844 H   0  0  0  0  0  0  0  0  0  0  0  0
    1.9334    2.0585   -0.6170 H   0  0  0  0  0  0  0  0  0  0  0  0
   -0.2559    2.8196   -0.3328 H   0  0  0  0  0  0  0  0  0  0  0  0
  1  2  1  0
  1  3  1  0
  2  4  1  0
  3  4  1  0
  3  5  1  0
  3 10  1  0
  4  6  1  0
  4 11  1  0
  5 13  1  0
  5  7  1  0
  5 12  1  0
  6 17  1  0
  6 16  1  0
  6  9  1  0
  7  8  1  0
  7 15  1  0
  7 14  1  0
  8 18  1  0
  8  9  2  0
  9 19  1  0
M  END
