
     RDKit          3D

 19 20  0  0  0  0  0  0  0  0999 V2000
   -1.3297   -2.1237    0.4326 O   0  0  0  0  0  0  0  0  0  0  0  0
   -2.2278   -1.1911    0.2528 O   0  0  0  0  0  0  0  0  0  0  0  0
   -0.4303   -1.3699   -0.3372 C   0  0  0  0  0  0  0  0  0  0  0  0
   -1.4440   -0.3002   -0.4967 C   0  0  0  0  0  0  0  0  0  0  0  0
    0.7650   -1.0306    0.4758 C   0  0  0  0  0  0  0  0  0  0  0  0
   -1.2021    0.9414    0.3009 C   0  0  0  0  0  0  0  0  0  0  0  0
    1.7160   -0.0620   -0.1569 C   0  0  0  0  0  0  0  0  0  0  0  0
    1.2408    1.3419    0.0717 C   0  0  0  0  0  0  0  0  0  0  0  0
   -0.0183    1.7196   -0.1830 C   0  0  0  0  0  0  0  0  0  0  0  0
   -0.1830   -1.9489   -1.2595 H   0  0  0  0  0  0  0  0  0  0  0  0
   -1.9117   -0.1748   -1.4836 H   0  0  0  0  0  0  0  0  0  0  0  0
    0.4747   -0.6252    1.4571 H   0  0  0  0  0  0  0  0  0  0  0  0
    1.3086   -1.9867    0.6801 H   0  0  0  0  0  0  0  0  0  0  0  0
    1.8934   -0.2349   -1.2303 H   0  0  0  0  0  0  0  0  0  0  0  0
    2.7063   -0.1524    0.3455 H   0  0  0  0  0  0  0  0  0  0  0  0
   -2.0850    1.6070    0.1769 H   0  0  0  0  0  0  0  0  0  0  0  0
   -1.1264    0.7031    1.3800 H   0  0  0  0  0  0  0  0  0  0  0  0
    2.0040    2.1005   -0.0499 H   0  0  0  0  0  0  0  0  0  0  0  0
   -0.1506    2.7871   -0.3765 H   0  0  0  0  0  0  0  0  0  0  0  0
  1  2  1  0
  1  3  1  0
  2  4  1  0
  3  4  1  0
  3  5  1  0
  3 10  1  0
  4  6  1  0
  4 11  1  0
  5 13  1  0
  5  7  1  0
  5 12  1  0
  6 17  1  0
  6 16  1  0
  6  9  1  0
  7  8  1  0
  7 15  1  0
  7 14  1  0
  8 18  1  0
  8  9  2  0
  9 19  1  0
M  END
