
     RDKit          3D

 20 20  0  0  0  0  0  0  0  0999 V2000
   -2.0676    1.3423   -0.3699 C   0  0  0  0  0  0  0  0  0  0  0  0
    3.8373    0.8254    0.2112 C   0  0  0  0  0  0  0  0  0  0  0  0
   -0.8077   -1.1920    0.0526 C   0  0  0  0  0  0  0  0  0  0  0  0
   -0.0398    0.0236   -0.2209 C   0  0  0  0  0  0  0  0  0  0  0  0
   -0.6721    1.0372   -0.8147 C   0  0  0  0  0  0  0  0  0  0  0  0
   -2.8459    0.1070   -0.1116 C   0  0  0  0  0  0  0  0  0  0  0  0
   -2.2669   -1.0816    0.0409 C   0  0  0  0  0  0  0  0  0  0  0  0
   -0.1847   -2.3652   -0.0731 C   0  0  0  0  0  0  0  0  0  0  0  0
    2.5629    0.1292   -0.0505 C   0  0  0  0  0  0  0  0  0  0  0  0
    1.3984   -0.0965   -0.3244 C   0  0  0  0  0  0  0  0  0  0  0  0
   -2.5367    1.8964   -1.2033 H   0  0  0  0  0  0  0  0  0  0  0  0
   -1.9564    1.9507    0.5550 H   0  0  0  0  0  0  0  0  0  0  0  0
    4.3775    1.0565   -0.7391 H   0  0  0  0  0  0  0  0  0  0  0  0
    3.6772    1.8041    0.7070 H   0  0  0  0  0  0  0  0  0  0  0  0
    4.4277    0.1164    0.8457 H   0  0  0  0  0  0  0  0  0  0  0  0
   -0.0906    1.9135   -1.1075 H   0  0  0  0  0  0  0  0  0  0  0  0
   -3.9260    0.2476   -0.0401 H   0  0  0  0  0  0  0  0  0  0  0  0
   -2.8799   -1.9832    0.0821 H   0  0  0  0  0  0  0  0  0  0  0  0
   -0.7121   -3.1976   -0.5438 H   0  0  0  0  0  0  0  0  0  0  0  0
    0.7054   -2.5339    0.5135 H   0  0  0  0  0  0  0  0  0  0  0  0
  1 12  1  0
  1  6  1  0
  1 11  1  0
  1  5  1  0
  2 13  1  0
  2 14  1  0
  2  9  1  0
  2 15  1  0
  3  4  1  0
  3  8  2  3
  3  7  1  0
  4  5  2  0
  4 10  1  0
  5 16  1  0
  6  7  2  0
  6 17  1  0
  7 18  1  0
  8 19  1  0
  8 20  1  0
  9 10  3  0
M  END
