
     RDKit          3D

 16 16  0  0  0  0  0  0  0  0999 V2000
    0.3903   -0.0971   -0.2103 C   0  0  0  0  0  0  0  0  0  0  0  0
   -0.4101   -1.1588    0.1919 C   0  0  0  0  0  0  0  0  0  0  0  0
   -0.2290    1.1464   -0.2290 C   0  0  0  0  0  0  0  0  0  0  0  0
    1.7829   -0.2823   -0.6308 C   0  0  0  0  0  0  0  0  0  0  0  0
   -1.7635   -1.1862   -0.1232 C   0  0  0  0  0  0  0  0  0  0  0  0
   -2.3265   -0.0009   -0.5775 C   0  0  0  0  0  0  0  0  0  0  0  0
   -1.6036    1.1769   -0.4306 C   0  0  0  0  0  0  0  0  0  0  0  0
    2.8003    0.2031    0.0815 C   0  0  0  0  0  0  0  0  0  0  0  0
    2.0082   -0.5755   -1.6538 H   0  0  0  0  0  0  0  0  0  0  0  0
    0.0914   -2.0433    0.5893 H   0  0  0  0  0  0  0  0  0  0  0  0
   -2.2769   -2.1385   -0.2650 H   0  0  0  0  0  0  0  0  0  0  0  0
   -3.3171    0.0205   -1.0285 H   0  0  0  0  0  0  0  0  0  0  0  0
   -2.1197    2.1366   -0.4828 H   0  0  0  0  0  0  0  0  0  0  0  0
    0.3834    2.0374   -0.3027 H   0  0  0  0  0  0  0  0  0  0  0  0
    3.0461    1.2429   -0.1415 H   0  0  0  0  0  0  0  0  0  0  0  0
    3.5438   -0.4811    0.4661 H   0  0  0  0  0  0  0  0  0  0  0  0
  1  3  2  0
  1  2  1  0
  1  4  1  0
  2 10  1  0
  2  5  2  0
  3 14  1  0
  3  7  1  0
  4  8  2  3
  4  9  1  0
  5 11  1  0
  5  6  1  0
  6  7  2  0
  6 12  1  0
  7 13  1  0
  8 15  1  0
  8 16  1  0
M  END
