
     RDKit          3D

 22 24  0  0  0  0  0  0  0  0999 V2000
   -0.5564    0.6627    0.4598 C   0  0  0  0  0  0  0  0  0  0  0  0
    0.4357    0.6594   -0.6661 C   0  0  0  0  0  0  0  0  0  0  0  0
   -0.3778   -0.8468    0.5411 C   0  0  0  0  0  0  0  0  0  0  0  0
    0.5812   -0.8367   -0.6185 C   0  0  0  0  0  0  0  0  0  0  0  0
   -1.9915    0.8934    0.0871 C   0  0  0  0  0  0  0  0  0  0  0  0
    1.7909    1.1545   -0.2491 C   0  0  0  0  0  0  0  0  0  0  0  0
   -1.7332   -1.3565    0.2437 C   0  0  0  0  0  0  0  0  0  0  0  0
    1.9522   -1.1257   -0.1467 C   0  0  0  0  0  0  0  0  0  0  0  0
   -2.6280   -0.3966    0.5097 C   0  0  0  0  0  0  0  0  0  0  0  0
    2.6703   -0.0225   -0.0930 C   0  0  0  0  0  0  0  0  0  0  0  0
   -0.2170    1.2256    1.3408 H   0  0  0  0  0  0  0  0  0  0  0  0
    0.0554    1.0872   -1.6033 H   0  0  0  0  0  0  0  0  0  0  0  0
    0.0432   -1.1010    1.5238 H   0  0  0  0  0  0  0  0  0  0  0  0
    0.2626   -1.3656   -1.5277 H   0  0  0  0  0  0  0  0  0  0  0  0
   -2.4616    1.7430    0.6285 H   0  0  0  0  0  0  0  0  0  0  0  0
   -2.1562    1.0658   -0.9904 H   0  0  0  0  0  0  0  0  0  0  0  0
    1.6769    1.7184    0.6857 H   0  0  0  0  0  0  0  0  0  0  0  0
    2.1948    1.8227   -1.0238 H   0  0  0  0  0  0  0  0  0  0  0  0
   -2.0178   -2.3874    0.0182 H   0  0  0  0  0  0  0  0  0  0  0  0
   -3.5873   -0.4876    1.0285 H   0  0  0  0  0  0  0  0  0  0  0  0
    2.3172   -2.1161    0.0473 H   0  0  0  0  0  0  0  0  0  0  0  0
    3.7465    0.0099   -0.1956 H   0  0  0  0  0  0  0  0  0  0  0  0
  1  5  1  0
  1 11  1  0
  1  3  1  0
  1  2  1  0
  2  4  1  0
  2 12  1  0
  2  6  1  0
  3  7  1  0
  3 13  1  0
  3  4  1  0
  4 14  1  0
  4  8  1  0
  5  9  1  0
  5 15  1  0
  5 16  1  0
  6 10  1  0
  6 18  1  0
  6 17  1  0
  7  9  2  0
  7 19  1  0
  8 21  1  0
  8 10  2  0
  9 20  1  0
 10 22  1  0
M  END
