
     RDKit          3D

 15 16  0  0  0  0  0  0  0  0999 V2000
   -0.0439   -0.3538    0.8704 C   0  0  0  0  0  0  0  0  0  0  0  0
    0.5921    0.8025    0.1222 C   0  0  0  0  0  0  0  0  0  0  0  0
   -0.9289   -0.9471   -0.1793 C   0  0  0  0  0  0  0  0  0  0  0  0
    1.3653   -0.8029    0.8838 C   0  0  0  0  0  0  0  0  0  0  0  0
    1.4569   -0.2932   -0.3553 C   0  0  0  0  0  0  0  0  0  0  0  0
   -0.4803    1.2529   -0.7748 C   0  0  0  0  0  0  0  0  0  0  0  0
   -1.3894    0.2841   -0.9009 C   0  0  0  0  0  0  0  0  0  0  0  0
   -0.4906   -0.0440    1.8122 H   0  0  0  0  0  0  0  0  0  0  0  0
    1.0316    1.5301    0.8114 H   0  0  0  0  0  0  0  0  0  0  0  0
   -0.3853   -1.6333   -0.8529 H   0  0  0  0  0  0  0  0  0  0  0  0
   -1.7906   -1.4478    0.3281 H   0  0  0  0  0  0  0  0  0  0  0  0
   -0.7627    2.3057   -0.8803 H   0  0  0  0  0  0  0  0  0  0  0  0
    2.1026   -0.3842   -1.2217 H   0  0  0  0  0  0  0  0  0  0  0  0
    2.1006   -0.6772    1.6877 H   0  0  0  0  0  0  0  0  0  0  0  0
   -2.3774    0.4082   -1.3506 H   0  0  0  0  0  0  0  0  0  0  0  0
  1  8  1  0
  1  4  1  0
  1  3  1  0
  1  2  1  0
  2  5  1  0
  2  6  1  0
  2  9  1  0
  3 11  1  0
  3 10  1  0
  3  7  1  0
  4  5  2  0
  4 14  1  0
  5 13  1  0
  6 12  1  0
  6  7  2  0
  7 15  1  0
M  END
