
     RDKit          3D

 15 15  0  0  0  0  0  0  0  0999 V2000
    0.4111    0.9814   -0.5155 C   0  0  0  0  0  0  0  0  0  0  0  0
   -0.1362   -0.3249   -0.0261 C   0  0  0  0  0  0  0  0  0  0  0  0
    1.8762    0.7728   -0.3195 C   0  0  0  0  0  0  0  0  0  0  0  0
    0.8482   -1.1180    0.3709 C   0  0  0  0  0  0  0  0  0  0  0  0
    2.1106   -0.4269    0.1859 C   0  0  0  0  0  0  0  0  0  0  0  0
   -1.5596   -0.7069    0.0210 C   0  0  0  0  0  0  0  0  0  0  0  0
   -2.5310    0.1083   -0.3841 C   0  0  0  0  0  0  0  0  0  0  0  0
    0.1767    1.1363   -1.5900 H   0  0  0  0  0  0  0  0  0  0  0  0
    0.0478    1.8261    0.1073 H   0  0  0  0  0  0  0  0  0  0  0  0
    2.6460    1.4958   -0.5549 H   0  0  0  0  0  0  0  0  0  0  0  0
    0.7287   -2.1179    0.7682 H   0  0  0  0  0  0  0  0  0  0  0  0
    3.0901   -0.8216    0.4207 H   0  0  0  0  0  0  0  0  0  0  0  0
   -1.8275   -1.6865    0.3988 H   0  0  0  0  0  0  0  0  0  0  0  0
   -2.3186    1.0969   -0.7697 H   0  0  0  0  0  0  0  0  0  0  0  0
   -3.5625   -0.2149   -0.3310 H   0  0  0  0  0  0  0  0  0  0  0  0
  1  2  1  0
  1  8  1  0
  1  3  1  0
  1  9  1  0
  2  6  1  0
  2  4  2  0
  3 10  1  0
  3  5  2  0
  4  5  1  0
  4 11  1  0
  5 12  1  0
  6 13  1  0
  6  7  2  3
  7 14  1  0
  7 15  1  0
M  END
