
     RDKit          3D

 23 23  0  0  0  0  0  0  0  0999 V2000
    1.8755    0.3813    0.6840 O   0  0  0  0  0  0  0  0  0  0  0  0
    2.8057    0.9535   -0.0494 O   0  0  0  0  0  0  0  0  0  0  0  0
    3.9589    0.4733    0.3902 O   0  0  0  0  0  0  0  0  0  0  0  0
    4.4672   -0.2625   -0.5655 O   0  0  0  0  0  0  0  0  0  0  0  0
    0.6658    0.2421   -0.0174 C   0  0  0  0  0  0  0  0  0  0  0  0
    0.0341   -1.0081    0.5223 C   0  0  0  0  0  0  0  0  0  0  0  0
   -1.1256   -1.5074   -0.2849 C   0  0  0  0  0  0  0  0  0  0  0  0
   -0.1330    1.4888    0.2974 C   0  0  0  0  0  0  0  0  0  0  0  0
   -2.3739   -0.6865   -0.0860 C   0  0  0  0  0  0  0  0  0  0  0  0
   -2.2753    0.6479   -0.7262 C   0  0  0  0  0  0  0  0  0  0  0  0
   -1.3833    1.5909   -0.4756 C   0  0  0  0  0  0  0  0  0  0  0  0
    0.8363    0.1800   -1.1039 H   0  0  0  0  0  0  0  0  0  0  0  0
   -1.3620   -2.5306    0.1052 H   0  0  0  0  0  0  0  0  0  0  0  0
   -0.8963   -1.5888   -1.3580 H   0  0  0  0  0  0  0  0  0  0  0  0
   -0.2778   -0.8754    1.5645 H   0  0  0  0  0  0  0  0  0  0  0  0
    0.8194   -1.7991    0.5198 H   0  0  0  0  0  0  0  0  0  0  0  0
   -3.2122   -1.2207   -0.5855 H   0  0  0  0  0  0  0  0  0  0  0  0
   -2.5337   -0.5819    1.0158 H   0  0  0  0  0  0  0  0  0  0  0  0
   -0.2742    1.5054    1.3899 H   0  0  0  0  0  0  0  0  0  0  0  0
    0.5063    2.3657    0.0378 H   0  0  0  0  0  0  0  0  0  0  0  0
   -2.9015    0.8642   -1.5904 H   0  0  0  0  0  0  0  0  0  0  0  0
   -1.7311    2.5852   -0.7652 H   0  0  0  0  0  0  0  0  0  0  0  0
    4.5107   -1.2172   -0.3266 H   0  0  0  0  0  0  0  0  0  0  0  0
  1  2  1  0
  1  5  1  0
  2  3  1  0
  3  4  1  0
  4 23  1  0
  5 12  1  0
  5  6  1  0
  5  8  1  0
  6 16  1  0
  6  7  1  0
  6 15  1  0
  7 14  1  0
  7 13  1  0
  7  9  1  0
  8 19  1  0
  8 11  1  0
  8 20  1  0
  9 18  1  0
  9 10  1  0
  9 17  1  0
 10 11  2  0
 10 21  1  0
 11 22  1  0
M  END
