
     RDKit          3D

 21 21  0  0  0  0  0  0  0  0999 V2000
   -2.5225    0.8547   -0.5046 O   0  0  0  0  0  0  0  0  0  0  0  0
   -3.6526    0.5422    0.1037 O   0  0  0  0  0  0  0  0  0  0  0  0
    0.8900   -0.0152    0.2998 C   0  0  0  0  0  0  0  0  0  0  0  0
   -1.4816    0.4037    0.3305 C   0  0  0  0  0  0  0  0  0  0  0  0
   -0.1570    1.0104   -0.1082 C   0  0  0  0  0  0  0  0  0  0  0  0
    0.2103   -1.3699    0.1138 C   0  0  0  0  0  0  0  0  0  0  0  0
   -1.2928   -1.1144    0.2283 C   0  0  0  0  0  0  0  0  0  0  0  0
    2.1470    0.1076   -0.5276 C   0  0  0  0  0  0  0  0  0  0  0  0
    3.3382    0.3459    0.0288 C   0  0  0  0  0  0  0  0  0  0  0  0
    1.1129    0.1231    1.3834 H   0  0  0  0  0  0  0  0  0  0  0  0
   -1.6619    0.6940    1.3940 H   0  0  0  0  0  0  0  0  0  0  0  0
    0.4329   -1.7957   -0.8907 H   0  0  0  0  0  0  0  0  0  0  0  0
    0.5533   -2.0902    0.8884 H   0  0  0  0  0  0  0  0  0  0  0  0
   -1.7063   -1.6126    1.1324 H   0  0  0  0  0  0  0  0  0  0  0  0
   -1.8126   -1.5199   -0.6682 H   0  0  0  0  0  0  0  0  0  0  0  0
   -0.1555    1.1507   -1.2136 H   0  0  0  0  0  0  0  0  0  0  0  0
    0.0228    1.9905    0.3853 H   0  0  0  0  0  0  0  0  0  0  0  0
    2.0839   -0.0004   -1.6070 H   0  0  0  0  0  0  0  0  0  0  0  0
    3.4451    0.4603    1.1031 H   0  0  0  0  0  0  0  0  0  0  0  0
    4.2213    0.4282   -0.5964 H   0  0  0  0  0  0  0  0  0  0  0  0
   -4.0148    1.4070    0.4265 H   0  0  0  0  0  0  0  0  0  0  0  0
  1  4  1  0
  1  2  1  0
  2 21  1  0
  3  8  1  0
  3  6  1  0
  3 10  1  0
  3  5  1  0
  4  5  1  0
  4  7  1  0
  4 11  1  0
  5 16  1  0
  5 17  1  0
  6 13  1  0
  6  7  1  0
  6 12  1  0
  7 14  1  0
  7 15  1  0
  8 18  1  0
  8  9  2  3
  9 20  1  0
  9 19  1  0
M  END
