
     RDKit          3D

 22 22  0  0  0  0  0  0  0  0999 V2000
    0.9282    0.7256    0.3483 C   0  0  0  0  0  0  0  0  0  0  0  0
    3.6333   -0.1971   -0.1898 C   0  0  0  0  0  0  0  0  0  0  0  0
   -1.4999    0.3865    0.0731 C   0  0  0  0  0  0  0  0  0  0  0  0
   -0.3570    0.9183   -0.3646 C   0  0  0  0  0  0  0  0  0  0  0  0
    1.3495   -0.7146    0.3460 C   0  0  0  0  0  0  0  0  0  0  0  0
    2.6351   -0.9113    0.6691 C   0  0  0  0  0  0  0  0  0  0  0  0
   -1.9228   -0.9990   -0.1744 C   0  0  0  0  0  0  0  0  0  0  0  0
   -2.7439    1.0790    0.4134 C   0  0  0  0  0  0  0  0  0  0  0  0
   -3.7844    0.2578    0.2723 C   0  0  0  0  0  0  0  0  0  0  0  0
   -3.2315   -1.0552   -0.0850 C   0  0  0  0  0  0  0  0  0  0  0  0
    1.7140    1.2454   -0.2569 H   0  0  0  0  0  0  0  0  0  0  0  0
    0.9249    1.1479    1.3743 H   0  0  0  0  0  0  0  0  0  0  0  0
    3.7457    0.8406    0.1520 H   0  0  0  0  0  0  0  0  0  0  0  0
    3.2461   -0.1326   -1.2346 H   0  0  0  0  0  0  0  0  0  0  0  0
    4.5876   -0.7541   -0.2591 H   0  0  0  0  0  0  0  0  0  0  0  0
   -0.4860    1.7983   -0.9992 H   0  0  0  0  0  0  0  0  0  0  0  0
    1.0176   -1.2827   -0.5294 H   0  0  0  0  0  0  0  0  0  0  0  0
    2.9490   -1.2779    1.6399 H   0  0  0  0  0  0  0  0  0  0  0  0
   -1.2728   -1.8495   -0.1516 H   0  0  0  0  0  0  0  0  0  0  0  0
   -2.8272    2.1223    0.6366 H   0  0  0  0  0  0  0  0  0  0  0  0
   -4.7515    0.5722   -0.1262 H   0  0  0  0  0  0  0  0  0  0  0  0
   -3.8539   -1.9198   -0.2519 H   0  0  0  0  0  0  0  0  0  0  0  0
  1 11  1  0
  1 12  1  0
  1  4  1  0
  1  5  1  0
  2 14  1  0
  2 15  1  0
  2  6  1  0
  2 13  1  0
  3  7  1  0
  3  8  1  0
  3  4  2  3
  4 16  1  0
  5  6  2  3
  5 17  1  0
  6 18  1  0
  7 19  1  0
  7 10  2  0
  8 20  1  0
  8  9  2  0
  9 10  1  0
  9 21  1  0
 10 22  1  0
M  END
