
     RDKit          3D

 12 12  0  0  0  0  0  0  0  0999 V2000
    0.0056    1.2843   -0.0059 C   0  0  0  0  0  0  0  0  0  0  0  0
    1.1559    0.2438    0.1021 C   0  0  0  0  0  0  0  0  0  0  0  0
    0.9194   -1.1032    0.0877 C   0  0  0  0  0  0  0  0  0  0  0  0
   -1.3755    0.6475   -0.1262 C   0  0  0  0  0  0  0  0  0  0  0  0
   -0.4711   -1.6199   -0.0340 C   0  0  0  0  0  0  0  0  0  0  0  0
   -1.2974   -0.6369   -0.1128 C   0  0  0  0  0  0  0  0  0  0  0  0
    0.0232    1.9308    0.8963 H   0  0  0  0  0  0  0  0  0  0  0  0
    0.1836    1.9218   -0.8970 H   0  0  0  0  0  0  0  0  0  0  0  0
    2.1738    0.6009    0.1914 H   0  0  0  0  0  0  0  0  0  0  0  0
    1.7445   -1.7992    0.1650 H   0  0  0  0  0  0  0  0  0  0  0  0
   -2.3055    1.1930   -0.2121 H   0  0  0  0  0  0  0  0  0  0  0  0
   -0.7565   -2.6628   -0.0544 H   0  0  0  0  0  0  0  0  0  0  0  0
  1  7  1  0
  1  8  1  0
  1  4  1  0
  1  2  1  0
  2  9  1  0
  2  3  2  0
  3  5  1  0
  3 10  1  0
  4  6  2  0
  4 11  1  0
  5 12  1  0
  5  6  2  0
M  END
