
     RDKit          3D

 19 19  0  0  0  0  0  0  0  0999 V2000
    2.7802    0.2079    0.2724 O   0  0  0  0  0  0  0  0  0  0  0  0
   -2.6830    1.3683    0.7626 O   0  0  0  0  0  0  0  0  0  0  0  0
    0.7122   -0.7081   -0.5713 C   0  0  0  0  0  0  0  0  0  0  0  0
   -0.5058   -1.3878   -0.0675 C   0  0  0  0  0  0  0  0  0  0  0  0
    1.4131    0.1555    0.4566 C   0  0  0  0  0  0  0  0  0  0  0  0
   -1.7415   -0.5749    0.0393 C   0  0  0  0  0  0  0  0  0  0  0  0
    0.7839    1.5062    0.3137 C   0  0  0  0  0  0  0  0  0  0  0  0
   -1.5799    0.8165    0.4648 C   0  0  0  0  0  0  0  0  0  0  0  0
   -0.5179    1.7428    0.1418 C   0  0  0  0  0  0  0  0  0  0  0  0
    1.4561   -1.5032   -0.8326 H   0  0  0  0  0  0  0  0  0  0  0  0
    0.5076   -0.1518   -1.4984 H   0  0  0  0  0  0  0  0  0  0  0  0
   -0.7265   -2.2185   -0.7874 H   0  0  0  0  0  0  0  0  0  0  0  0
   -0.2665   -1.9136    0.8918 H   0  0  0  0  0  0  0  0  0  0  0  0
    1.1754   -0.2332    1.4704 H   0  0  0  0  0  0  0  0  0  0  0  0
   -2.3762   -1.0688    0.8217 H   0  0  0  0  0  0  0  0  0  0  0  0
   -2.3753   -0.6137   -0.8831 H   0  0  0  0  0  0  0  0  0  0  0  0
    1.4090    2.1436   -0.3165 H   0  0  0  0  0  0  0  0  0  0  0  0
   -0.7283    2.8049    0.1752 H   0  0  0  0  0  0  0  0  0  0  0  0
    3.2633   -0.3722    0.9232 H   0  0  0  0  0  0  0  0  0  0  0  0
  1  5  1  0
  1 19  1  0
  2  8  2  0
  3 10  1  0
  3  5  1  0
  3  4  1  0
  3 11  1  0
  4  6  1  0
  4 12  1  0
  4 13  1  0
  5  7  1  0
  5 14  1  0
  6  8  1  0
  6 15  1  0
  6 16  1  0
  7 17  1  0
  7  9  2  0
  8  9  1  0
  9 18  1  0
M  END
