
     RDKit          3D

 19 19  0  0  0  0  0  0  0  0999 V2000
    2.7424    0.2910    0.1700 O   0  0  0  0  0  0  0  0  0  0  0  0
   -2.4705    1.1917    1.3278 O   0  0  0  0  0  0  0  0  0  0  0  0
    0.7819   -0.9769   -0.3946 C   0  0  0  0  0  0  0  0  0  0  0  0
   -0.5775   -1.4356    0.1499 C   0  0  0  0  0  0  0  0  0  0  0  0
    1.3574    0.2155    0.3903 C   0  0  0  0  0  0  0  0  0  0  0  0
   -1.7139   -0.4762   -0.2048 C   0  0  0  0  0  0  0  0  0  0  0  0
    0.7387    1.5250   -0.0273 C   0  0  0  0  0  0  0  0  0  0  0  0
   -1.5935    0.8499    0.4907 C   0  0  0  0  0  0  0  0  0  0  0  0
   -0.5581    1.8219    0.1088 C   0  0  0  0  0  0  0  0  0  0  0  0
    1.4818   -1.8359   -0.2986 H   0  0  0  0  0  0  0  0  0  0  0  0
    0.7101   -0.7361   -1.4785 H   0  0  0  0  0  0  0  0  0  0  0  0
   -0.8129   -2.4245   -0.3005 H   0  0  0  0  0  0  0  0  0  0  0  0
   -0.5291   -1.5826    1.2514 H   0  0  0  0  0  0  0  0  0  0  0  0
    1.1703    0.0796    1.4819 H   0  0  0  0  0  0  0  0  0  0  0  0
   -2.6745   -0.9548    0.0869 H   0  0  0  0  0  0  0  0  0  0  0  0
   -1.7492   -0.3146   -1.3040 H   0  0  0  0  0  0  0  0  0  0  0  0
    1.4018    2.3175   -0.3551 H   0  0  0  0  0  0  0  0  0  0  0  0
   -0.8709    2.8447   -0.0622 H   0  0  0  0  0  0  0  0  0  0  0  0
    3.1656   -0.3997    0.7447 H   0  0  0  0  0  0  0  0  0  0  0  0
  1  5  1  0
  1 19  1  0
  2  8  2  0
  3 10  1  0
  3  5  1  0
  3  4  1  0
  3 11  1  0
  4  6  1  0
  4 12  1  0
  4 13  1  0
  5  7  1  0
  5 14  1  0
  6  8  1  0
  6 15  1  0
  6 16  1  0
  7 17  1  0
  7  9  2  0
  8  9  1  0
  9 18  1  0
M  END
