
     RDKit          3D

 19 20  0  0  0  0  0  0  0  0999 V2000
    0.0560   -0.7608   -0.4820 C   0  0  0  0  0  0  0  0  0  0  0  0
   -1.2245   -1.0844    0.3076 C   0  0  0  0  0  0  0  0  0  0  0  0
    1.8542    0.8417    0.0630 C   0  0  0  0  0  0  0  0  0  0  0  0
    0.4222    0.6773   -0.3068 C   0  0  0  0  0  0  0  0  0  0  0  0
    1.2811   -1.4445    0.0255 C   0  0  0  0  0  0  0  0  0  0  0  0
    2.2624   -0.5793    0.2863 C   0  0  0  0  0  0  0  0  0  0  0  0
   -2.2802   -0.0366    0.0252 C   0  0  0  0  0  0  0  0  0  0  0  0
   -0.5082    1.6343   -0.2232 C   0  0  0  0  0  0  0  0  0  0  0  0
   -1.9337    1.2426   -0.1968 C   0  0  0  0  0  0  0  0  0  0  0  0
   -0.0903   -0.9884   -1.5607 H   0  0  0  0  0  0  0  0  0  0  0  0
   -1.0136   -1.0884    1.3996 H   0  0  0  0  0  0  0  0  0  0  0  0
   -1.6033   -2.0874    0.0169 H   0  0  0  0  0  0  0  0  0  0  0  0
    2.4331    1.3006   -0.7658 H   0  0  0  0  0  0  0  0  0  0  0  0
    1.9613    1.4206    1.0051 H   0  0  0  0  0  0  0  0  0  0  0  0
    3.2471   -0.8803    0.6282 H   0  0  0  0  0  0  0  0  0  0  0  0
    1.3905   -2.5205    0.1145 H   0  0  0  0  0  0  0  0  0  0  0  0
   -3.3266   -0.3127    0.0537 H   0  0  0  0  0  0  0  0  0  0  0  0
   -2.6995    1.9974   -0.3198 H   0  0  0  0  0  0  0  0  0  0  0  0
   -0.2281    2.6687   -0.0704 H   0  0  0  0  0  0  0  0  0  0  0  0
  1  5  1  0
  1  2  1  0
  1 10  1  0
  1  4  1  0
  2  7  1  0
  2 12  1  0
  2 11  1  0
  3 14  1  0
  3  6  1  0
  3 13  1  0
  3  4  1  0
  4  8  2  0
  5 16  1  0
  5  6  2  0
  6 15  1  0
  7 17  1  0
  7  9  2  0
  8  9  1  0
  8 19  1  0
  9 18  1  0
M  END
