
     RDKit          3D

 17 17  0  0  0  0  0  0  0  0999 V2000
    0.2097   -1.1297   -0.1828 C   0  0  0  0  0  0  0  0  0  0  0  0
   -1.2090   -1.2004    0.4088 C   0  0  0  0  0  0  0  0  0  0  0  0
    2.2899    0.4410   -0.0180 C   0  0  0  0  0  0  0  0  0  0  0  0
    0.8012    0.2594   -0.0719 C   0  0  0  0  0  0  0  0  0  0  0  0
   -2.0367   -0.0065    0.0166 C   0  0  0  0  0  0  0  0  0  0  0  0
   -0.0003    1.3356   -0.1114 C   0  0  0  0  0  0  0  0  0  0  0  0
   -1.4652    1.1852   -0.1770 C   0  0  0  0  0  0  0  0  0  0  0  0
    0.8538   -1.8665    0.3437 H   0  0  0  0  0  0  0  0  0  0  0  0
    0.1739   -1.4108   -1.2575 H   0  0  0  0  0  0  0  0  0  0  0  0
   -1.1446   -1.2346    1.5177 H   0  0  0  0  0  0  0  0  0  0  0  0
   -1.7098   -2.1296    0.0625 H   0  0  0  0  0  0  0  0  0  0  0  0
    2.6294    1.0359   -0.8923 H   0  0  0  0  0  0  0  0  0  0  0  0
    2.8126   -0.5383   -0.0370 H   0  0  0  0  0  0  0  0  0  0  0  0
    2.5692    0.9726    0.9162 H   0  0  0  0  0  0  0  0  0  0  0  0
   -3.1144   -0.0987   -0.0315 H   0  0  0  0  0  0  0  0  0  0  0  0
    0.4214    2.3336   -0.1059 H   0  0  0  0  0  0  0  0  0  0  0  0
   -2.0810    2.0518   -0.3803 H   0  0  0  0  0  0  0  0  0  0  0  0
  1  9  1  0
  1  2  1  0
  1  4  1  0
  1  8  1  0
  2 10  1  0
  2 11  1  0
  2  5  1  0
  3 14  1  0
  3 13  1  0
  3  4  1  0
  3 12  1  0
  4  6  2  0
  5 15  1  0
  5  7  2  0
  6  7  1  0
  6 16  1  0
  7 17  1  0
M  END
