
     RDKit          3D

 22 23  0  0  0  0  0  0  0  0999 V2000
    0.1113    0.7412   -0.2168 C   0  0  0  0  0  0  0  0  0  0  0  0
    0.1183   -0.7391    0.2204 C   0  0  0  0  0  0  0  0  0  0  0  0
   -1.1340    1.4427    0.3483 C   0  0  0  0  0  0  0  0  0  0  0  0
   -1.0952   -1.4637   -0.3834 C   0  0  0  0  0  0  0  0  0  0  0  0
    1.3901    1.4240    0.2097 C   0  0  0  0  0  0  0  0  0  0  0  0
    1.4226   -1.3976   -0.1654 C   0  0  0  0  0  0  0  0  0  0  0  0
   -2.3904    0.6315    0.1239 C   0  0  0  0  0  0  0  0  0  0  0  0
   -2.3730   -0.6762   -0.1989 C   0  0  0  0  0  0  0  0  0  0  0  0
    2.5450    0.7463    0.1971 C   0  0  0  0  0  0  0  0  0  0  0  0
    2.5635   -0.6983   -0.1166 C   0  0  0  0  0  0  0  0  0  0  0  0
    0.0667    0.7873   -1.3291 H   0  0  0  0  0  0  0  0  0  0  0  0
    0.0396   -0.7863    1.3308 H   0  0  0  0  0  0  0  0  0  0  0  0
   -1.2514    2.4292   -0.1497 H   0  0  0  0  0  0  0  0  0  0  0  0
   -1.0188    1.6166    1.4403 H   0  0  0  0  0  0  0  0  0  0  0  0
   -1.2096   -2.4523    0.1110 H   0  0  0  0  0  0  0  0  0  0  0  0
   -0.9424   -1.6350   -1.4712 H   0  0  0  0  0  0  0  0  0  0  0  0
   -3.3487    1.1240    0.2576 H   0  0  0  0  0  0  0  0  0  0  0  0
   -3.3172   -1.1866   -0.3626 H   0  0  0  0  0  0  0  0  0  0  0  0
    1.3912    2.4802    0.4505 H   0  0  0  0  0  0  0  0  0  0  0  0
    1.4511   -2.4535   -0.4057 H   0  0  0  0  0  0  0  0  0  0  0  0
    3.5078   -1.1908   -0.3095 H   0  0  0  0  0  0  0  0  0  0  0  0
    3.4733    1.2565    0.4194 H   0  0  0  0  0  0  0  0  0  0  0  0
  1  3  1  0
  1  2  1  0
  1  5  1  0
  1 11  1  0
  2  6  1  0
  2  4  1  0
  2 12  1  0
  3 14  1  0
  3 13  1  0
  3  7  1  0
  4  8  1  0
  4 15  1  0
  4 16  1  0
  5 19  1  0
  5  9  2  0
  6 20  1  0
  6 10  2  0
  7  8  2  0
  7 17  1  0
  8 18  1  0
  9 10  1  0
  9 22  1  0
 10 21  1  0
M  END
