
     RDKit          3D

 22 23  0  0  0  0  0  0  0  0999 V2000
    0.0962    0.7743   -0.4303 C   0  0  0  0  0  0  0  0  0  0  0  0
    0.0562   -0.6856    0.0112 C   0  0  0  0  0  0  0  0  0  0  0  0
   -1.0926    1.4203    0.2713 C   0  0  0  0  0  0  0  0  0  0  0  0
   -1.0799   -1.2860   -0.7858 C   0  0  0  0  0  0  0  0  0  0  0  0
    1.3752    1.3954   -0.0726 C   0  0  0  0  0  0  0  0  0  0  0  0
    1.3401   -1.3720   -0.1843 C   0  0  0  0  0  0  0  0  0  0  0  0
   -2.2768    0.5415    0.3110 C   0  0  0  0  0  0  0  0  0  0  0  0
   -2.3153   -0.7103   -0.1536 C   0  0  0  0  0  0  0  0  0  0  0  0
    2.4397    0.6803    0.2919 C   0  0  0  0  0  0  0  0  0  0  0  0
    2.4237   -0.7859    0.3032 C   0  0  0  0  0  0  0  0  0  0  0  0
   -0.0446    0.7696   -1.5305 H   0  0  0  0  0  0  0  0  0  0  0  0
   -0.2577   -0.7142    1.0869 H   0  0  0  0  0  0  0  0  0  0  0  0
   -1.3054    2.4365   -0.1350 H   0  0  0  0  0  0  0  0  0  0  0  0
   -0.7547    1.5651    1.3289 H   0  0  0  0  0  0  0  0  0  0  0  0
   -1.0816   -2.3795   -0.8061 H   0  0  0  0  0  0  0  0  0  0  0  0
   -0.9735   -0.8962   -1.8291 H   0  0  0  0  0  0  0  0  0  0  0  0
   -3.0156    0.8000    1.0788 H   0  0  0  0  0  0  0  0  0  0  0  0
   -2.9146   -1.4334    0.4111 H   0  0  0  0  0  0  0  0  0  0  0  0
    1.4611    2.4771   -0.1825 H   0  0  0  0  0  0  0  0  0  0  0  0
    1.3363   -2.4587   -0.2670 H   0  0  0  0  0  0  0  0  0  0  0  0
    3.1982   -1.3223    0.8549 H   0  0  0  0  0  0  0  0  0  0  0  0
    3.3855    1.1839    0.4276 H   0  0  0  0  0  0  0  0  0  0  0  0
  1  3  1  0
  1  2  1  0
  1  5  1  0
  1 11  1  0
  2  6  1  0
  2  4  1  0
  2 12  1  0
  3 14  1  0
  3 13  1  0
  3  7  1  0
  4  8  1  0
  4 15  1  0
  4 16  1  0
  5 19  1  0
  5  9  2  0
  6 20  1  0
  6 10  2  0
  7  8  2  0
  7 17  1  0
  8 18  1  0
  9 10  1  0
  9 22  1  0
 10 21  1  0
M  END
