
     RDKit          3D

 19 19  0  0  0  0  0  0  0  0999 V2000
    1.3102   -0.7046   -0.1855 C   0  0  0  0  0  0  0  0  0  0  0  0
   -0.8367   -0.4809   -0.1308 C   0  0  0  0  0  0  0  0  0  0  0  0
    0.2341   -0.8707    0.8876 C   0  0  0  0  0  0  0  0  0  0  0  0
    0.2392   -0.3110   -1.2028 C   0  0  0  0  0  0  0  0  0  0  0  0
    2.3097    0.4155    0.1169 C   0  0  0  0  0  0  0  0  0  0  0  0
   -1.5343    0.8123    0.2138 C   0  0  0  0  0  0  0  0  0  0  0  0
   -2.8662    0.9021    0.2346 C   0  0  0  0  0  0  0  0  0  0  0  0
    1.8082   -1.6661   -0.4417 H   0  0  0  0  0  0  0  0  0  0  0  0
   -1.5276   -1.3244   -0.3583 H   0  0  0  0  0  0  0  0  0  0  0  0
    0.3312   -0.1612    1.7404 H   0  0  0  0  0  0  0  0  0  0  0  0
    0.1326   -1.9286    1.2150 H   0  0  0  0  0  0  0  0  0  0  0  0
    0.3393    0.7296   -1.5866 H   0  0  0  0  0  0  0  0  0  0  0  0
    0.1405   -1.0636   -2.0155 H   0  0  0  0  0  0  0  0  0  0  0  0
    2.9558    0.5863   -0.7696 H   0  0  0  0  0  0  0  0  0  0  0  0
    2.9516    0.1197    0.9730 H   0  0  0  0  0  0  0  0  0  0  0  0
    1.7877    1.3639    0.3695 H   0  0  0  0  0  0  0  0  0  0  0  0
   -0.9427    1.6926    0.4509 H   0  0  0  0  0  0  0  0  0  0  0  0
   -3.4906    0.0445    0.0034 H   0  0  0  0  0  0  0  0  0  0  0  0
   -3.3420    1.8445    0.4858 H   0  0  0  0  0  0  0  0  0  0  0  0
  1  8  1  0
  1  3  1  0
  1  5  1  0
  1  4  1  0
  2  3  1  0
  2  9  1  0
  2  4  1  0
  2  6  1  0
  3 10  1  0
  3 11  1  0
  4 12  1  0
  4 13  1  0
  5 16  1  0
  5 14  1  0
  5 15  1  0
  6  7  2  3
  6 17  1  0
  7 18  1  0
  7 19  1  0
M  END
