
     RDKit          3D

 22 22  0  0  0  0  0  0  0  0999 V2000
   -1.3399    0.4563   -0.1522 C   0  0  0  0  0  0  0  0  0  0  0  0
   -0.3193    0.0294   -1.1847 C   0  0  0  0  0  0  0  0  0  0  0  0
   -1.5456   -0.5805    0.8941 C   0  0  0  0  0  0  0  0  0  0  0  0
   -2.7039    0.5780   -0.7142 C   0  0  0  0  0  0  0  0  0  0  0  0
    1.0183    0.5128   -0.7725 C   0  0  0  0  0  0  0  0  0  0  0  0
   -2.7948   -0.4009    1.3280 C   0  0  0  0  0  0  0  0  0  0  0  0
   -3.5269    0.3659    0.3134 C   0  0  0  0  0  0  0  0  0  0  0  0
    2.0642   -0.2745   -0.5838 C   0  0  0  0  0  0  0  0  0  0  0  0
    2.9195   -0.1501    0.6030 C   0  0  0  0  0  0  0  0  0  0  0  0
    4.1671   -0.5651    0.6194 C   0  0  0  0  0  0  0  0  0  0  0  0
   -0.9981    1.3643    0.3670 H   0  0  0  0  0  0  0  0  0  0  0  0
   -0.6117    0.5692   -2.1222 H   0  0  0  0  0  0  0  0  0  0  0  0
   -0.3310   -1.0624   -1.3563 H   0  0  0  0  0  0  0  0  0  0  0  0
   -0.9852   -1.4996    1.0760 H   0  0  0  0  0  0  0  0  0  0  0  0
   -3.0099    0.5727   -1.7566 H   0  0  0  0  0  0  0  0  0  0  0  0
    1.0464    1.4768   -0.2732 H   0  0  0  0  0  0  0  0  0  0  0  0
    2.5336   -0.6579   -1.4872 H   0  0  0  0  0  0  0  0  0  0  0  0
   -3.1198   -0.5678    2.3575 H   0  0  0  0  0  0  0  0  0  0  0  0
   -4.5500    0.7392    0.3872 H   0  0  0  0  0  0  0  0  0  0  0  0
    2.6480    0.6165    1.3308 H   0  0  0  0  0  0  0  0  0  0  0  0
    4.4287   -1.6215    0.7019 H   0  0  0  0  0  0  0  0  0  0  0  0
    5.0105    0.0991    0.4248 H   0  0  0  0  0  0  0  0  0  0  0  0
  1  4  1  0
  1  2  1  0
  1 11  1  0
  1  3  1  0
  2  5  1  0
  2 12  1  0
  2 13  1  0
  3 14  1  0
  3  6  2  0
  4 15  1  0
  4  7  2  0
  5 16  1  0
  5  8  2  3
  6  7  1  0
  6 18  1  0
  7 19  1  0
  8 17  1  0
  8  9  1  0
  9 20  1  0
  9 10  2  3
 10 22  1  0
 10 21  1  0
M  END
