
     RDKit          3D

 22 23  0  0  0  0  0  0  0  0999 V2000
    0.3701    0.5826   -1.0667 C   0  0  0  0  0  0  0  0  0  0  0  0
   -1.0017   -1.2775   -0.4972 C   0  0  0  0  0  0  0  0  0  0  0  0
    2.5949   -0.4330    0.4458 C   0  0  0  0  0  0  0  0  0  0  0  0
   -2.7279    0.2352    0.8616 C   0  0  0  0  0  0  0  0  0  0  0  0
    0.4065   -0.8565   -0.6429 C   0  0  0  0  0  0  0  0  0  0  0  0
   -1.6481    0.0274   -0.1283 C   0  0  0  0  0  0  0  0  0  0  0  0
   -1.0956    0.8950   -0.9870 C   0  0  0  0  0  0  0  0  0  0  0  0
    1.6070   -1.3045   -0.2684 C   0  0  0  0  0  0  0  0  0  0  0  0
    1.0738    1.4109   -0.0326 C   0  0  0  0  0  0  0  0  0  0  0  0
    1.9146    0.8370    0.8048 C   0  0  0  0  0  0  0  0  0  0  0  0
    0.7820    0.7301   -2.0738 H   0  0  0  0  0  0  0  0  0  0  0  0
   -1.1901   -2.0111    0.2925 H   0  0  0  0  0  0  0  0  0  0  0  0
   -1.4397   -1.6568   -1.4556 H   0  0  0  0  0  0  0  0  0  0  0  0
    3.4958   -0.2315   -0.1434 H   0  0  0  0  0  0  0  0  0  0  0  0
    2.7974   -0.9612    1.4093 H   0  0  0  0  0  0  0  0  0  0  0  0
   -2.6534    1.1768    1.4228 H   0  0  0  0  0  0  0  0  0  0  0  0
   -2.6482   -0.5766    1.6272 H   0  0  0  0  0  0  0  0  0  0  0  0
   -3.7285    0.2223    0.3848 H   0  0  0  0  0  0  0  0  0  0  0  0
    0.9574    2.4942   -0.0947 H   0  0  0  0  0  0  0  0  0  0  0  0
   -1.6198    1.7834   -1.3531 H   0  0  0  0  0  0  0  0  0  0  0  0
    1.7079   -2.3945   -0.2860 H   0  0  0  0  0  0  0  0  0  0  0  0
    2.0456    1.3081    1.7807 H   0  0  0  0  0  0  0  0  0  0  0  0
  1  5  1  0
  1  9  1  0
  1 11  1  0
  1  7  1  0
  2  5  1  0
  2  6  1  0
  2 12  1  0
  2 13  1  0
  3  8  1  0
  3 14  1  0
  3 15  1  0
  3 10  1  0
  4  6  1  0
  4 17  1  0
  4 18  1  0
  4 16  1  0
  5  8  2  0
  6  7  2  0
  7 20  1  0
  8 21  1  0
  9 19  1  0
  9 10  2  0
 10 22  1  0
M  END
