
     RDKit          3D

 20 21  0  0  0  0  0  0  0  0999 V2000
   -0.1586   -0.4885    0.5486 C   0  0  0  0  0  0  0  0  0  0  0  0
   -1.7896    1.0984   -0.4098 C   0  0  0  0  0  0  0  0  0  0  0  0
   -1.4796   -0.3411   -0.1379 C   0  0  0  0  0  0  0  0  0  0  0  0
    0.3473    0.9141    0.5120 C   0  0  0  0  0  0  0  0  0  0  0  0
   -0.5376    1.7772    0.0311 C   0  0  0  0  0  0  0  0  0  0  0  0
    0.8191   -1.4127   -0.1409 C   0  0  0  0  0  0  0  0  0  0  0  0
    1.7869    1.1847    0.6094 C   0  0  0  0  0  0  0  0  0  0  0  0
    2.1302   -1.1170   -0.1755 C   0  0  0  0  0  0  0  0  0  0  0  0
    2.6359    0.1987    0.2943 C   0  0  0  0  0  0  0  0  0  0  0  0
   -2.3291   -1.3454   -0.3790 C   0  0  0  0  0  0  0  0  0  0  0  0
   -0.3077   -0.8171    1.5996 H   0  0  0  0  0  0  0  0  0  0  0  0
   -1.9573    1.2644   -1.4951 H   0  0  0  0  0  0  0  0  0  0  0  0
   -2.6577    1.4452    0.1898 H   0  0  0  0  0  0  0  0  0  0  0  0
   -0.3131    2.8159   -0.1766 H   0  0  0  0  0  0  0  0  0  0  0  0
    0.4850   -2.3820   -0.4891 H   0  0  0  0  0  0  0  0  0  0  0  0
    2.8303   -1.8367   -0.5798 H   0  0  0  0  0  0  0  0  0  0  0  0
    2.1542    2.1759    0.8444 H   0  0  0  0  0  0  0  0  0  0  0  0
    3.7022    0.3834    0.3087 H   0  0  0  0  0  0  0  0  0  0  0  0
   -2.0697   -2.3649   -0.1120 H   0  0  0  0  0  0  0  0  0  0  0  0
   -3.2915   -1.1523   -0.8423 H   0  0  0  0  0  0  0  0  0  0  0  0
  1  3  1  0
  1  6  1  0
  1  4  1  0
  1 11  1  0
  2  5  1  0
  2  3  1  0
  2 13  1  0
  2 12  1  0
  3 10  2  3
  4  5  2  0
  4  7  1  0
  5 14  1  0
  6  8  2  0
  6 15  1  0
  7  9  2  0
  7 17  1  0
  8  9  1  0
  8 16  1  0
  9 18  1  0
 10 20  1  0
 10 19  1  0
M  END
