
     RDKit          3D

 17 17  0  0  0  0  0  0  0  0999 V2000
    0.2009   -0.5033   -0.0481 C   0  0  0  0  0  0  0  0  0  0  0  0
   -0.0941    0.3417    1.1663 C   0  0  0  0  0  0  0  0  0  0  0  0
   -1.0896   -0.6787   -0.7748 C   0  0  0  0  0  0  0  0  0  0  0  0
   -1.4832    0.7922    0.9614 C   0  0  0  0  0  0  0  0  0  0  0  0
    1.2506    0.1863   -0.8426 C   0  0  0  0  0  0  0  0  0  0  0  0
   -2.1097    0.0276    0.0613 C   0  0  0  0  0  0  0  0  0  0  0  0
    2.5193   -0.1046   -0.5294 C   0  0  0  0  0  0  0  0  0  0  0  0
    0.5731   -1.5059    0.2769 H   0  0  0  0  0  0  0  0  0  0  0  0
    0.0263   -0.2735    2.0927 H   0  0  0  0  0  0  0  0  0  0  0  0
    0.5763    1.2270    1.2503 H   0  0  0  0  0  0  0  0  0  0  0  0
   -1.3976   -1.7549   -0.7746 H   0  0  0  0  0  0  0  0  0  0  0  0
   -1.0715   -0.3168   -1.8197 H   0  0  0  0  0  0  0  0  0  0  0  0
   -1.9189    1.7272    1.2993 H   0  0  0  0  0  0  0  0  0  0  0  0
    1.0633    1.2450   -1.0514 H   0  0  0  0  0  0  0  0  0  0  0  0
   -3.1772   -0.1595    0.0013 H   0  0  0  0  0  0  0  0  0  0  0  0
    3.3458    0.5038   -0.9107 H   0  0  0  0  0  0  0  0  0  0  0  0
    2.7862   -0.7537    0.3094 H   0  0  0  0  0  0  0  0  0  0  0  0
  1  5  1  0
  1  8  1  0
  1  3  1  0
  1  2  1  0
  2  4  1  0
  2 10  1  0
  2  9  1  0
  3 11  1  0
  3 12  1  0
  3  6  1  0
  4 13  1  0
  4  6  2  0
  5  7  2  3
  5 14  1  0
  6 15  1  0
  7 17  1  0
  7 16  1  0
M  END
