
     RDKit          3D

 21 21  0  0  0  0  0  0  0  0999 V2000
   -0.7850   -1.5338    0.4648 O   0  0  0  0  0  0  0  0  0  0  0  0
    0.0011   -1.8706   -0.5457 O   0  0  0  0  0  0  0  0  0  0  0  0
   -0.7809    1.5097    0.4025 C   0  0  0  0  0  0  0  0  0  0  0  0
   -1.4021    0.5660   -0.6454 C   0  0  0  0  0  0  0  0  0  0  0  0
    0.5745    1.0475    0.9624 C   0  0  0  0  0  0  0  0  0  0  0  0
   -1.8505   -0.7915   -0.0767 C   0  0  0  0  0  0  0  0  0  0  0  0
    1.3287   -1.7293   -0.0935 C   0  0  0  0  0  0  0  0  0  0  0  0
    1.5820    0.7870   -0.1305 C   0  0  0  0  0  0  0  0  0  0  0  0
    1.9235   -0.4341   -0.5831 C   0  0  0  0  0  0  0  0  0  0  0  0
   -0.6433    2.5076   -0.0688 H   0  0  0  0  0  0  0  0  0  0  0  0
   -1.4931    1.6431    1.2456 H   0  0  0  0  0  0  0  0  0  0  0  0
   -0.7089    0.4175   -1.5000 H   0  0  0  0  0  0  0  0  0  0  0  0
   -2.3019    1.0686   -1.0619 H   0  0  0  0  0  0  0  0  0  0  0  0
    0.4476    0.1796    1.6375 H   0  0  0  0  0  0  0  0  0  0  0  0
    0.9779    1.8578    1.6066 H   0  0  0  0  0  0  0  0  0  0  0  0
   -2.3609   -1.3793   -0.8729 H   0  0  0  0  0  0  0  0  0  0  0  0
   -2.5984   -0.6165    0.7255 H   0  0  0  0  0  0  0  0  0  0  0  0
    1.9200   -2.5616   -0.5295 H   0  0  0  0  0  0  0  0  0  0  0  0
    1.4359   -1.8257    1.0122 H   0  0  0  0  0  0  0  0  0  0  0  0
    2.0555    1.6514   -0.5871 H   0  0  0  0  0  0  0  0  0  0  0  0
    2.6784   -0.4933   -1.3620 H   0  0  0  0  0  0  0  0  0  0  0  0
  1  2  1  0
  1  6  1  0
  2  7  1  0
  3  5  1  0
  3  4  1  0
  3 10  1  0
  3 11  1  0
  4 12  1  0
  4 13  1  0
  4  6  1  0
  5 15  1  0
  5 14  1  0
  5  8  1  0
  6 16  1  0
  6 17  1  0
  7 18  1  0
  7  9  1  0
  7 19  1  0
  8  9  2  0
  8 20  1  0
  9 21  1  0
M  END
