
     RDKit          3D

 21 21  0  0  0  0  0  0  0  0999 V2000
   -0.8809   -1.7258    0.1933 O   0  0  0  0  0  0  0  0  0  0  0  0
    0.1065   -1.6384   -0.6707 O   0  0  0  0  0  0  0  0  0  0  0  0
   -0.7817    1.4211    0.3996 C   0  0  0  0  0  0  0  0  0  0  0  0
   -1.4153    0.4992   -0.5954 C   0  0  0  0  0  0  0  0  0  0  0  0
    0.6502    1.1209    0.7047 C   0  0  0  0  0  0  0  0  0  0  0  0
   -1.8849   -0.8052   -0.0271 C   0  0  0  0  0  0  0  0  0  0  0  0
    1.2824   -1.6193    0.0831 C   0  0  0  0  0  0  0  0  0  0  0  0
    1.4509    0.7097   -0.4671 C   0  0  0  0  0  0  0  0  0  0  0  0
    2.0924   -0.4644   -0.4174 C   0  0  0  0  0  0  0  0  0  0  0  0
   -0.8240    2.4525   -0.0238 H   0  0  0  0  0  0  0  0  0  0  0  0
   -1.3423    1.4136    1.3689 H   0  0  0  0  0  0  0  0  0  0  0  0
   -0.7557    0.3720   -1.4628 H   0  0  0  0  0  0  0  0  0  0  0  0
   -2.3277    1.0278   -0.9736 H   0  0  0  0  0  0  0  0  0  0  0  0
    0.6599    0.3793    1.5300 H   0  0  0  0  0  0  0  0  0  0  0  0
    1.1028    2.0477    1.1404 H   0  0  0  0  0  0  0  0  0  0  0  0
   -2.5708   -1.2637   -0.7844 H   0  0  0  0  0  0  0  0  0  0  0  0
   -2.4813   -0.6367    0.8777 H   0  0  0  0  0  0  0  0  0  0  0  0
    1.8131   -2.5631   -0.1509 H   0  0  0  0  0  0  0  0  0  0  0  0
    1.1009   -1.5759    1.1652 H   0  0  0  0  0  0  0  0  0  0  0  0
    1.9119    1.4720   -1.1026 H   0  0  0  0  0  0  0  0  0  0  0  0
    3.0937   -0.6233   -0.7871 H   0  0  0  0  0  0  0  0  0  0  0  0
  1  2  1  0
  1  6  1  0
  2  7  1  0
  3  5  1  0
  3  4  1  0
  3 10  1  0
  3 11  1  0
  4 12  1  0
  4 13  1  0
  4  6  1  0
  5 15  1  0
  5 14  1  0
  5  8  1  0
  6 16  1  0
  6 17  1  0
  7 18  1  0
  7  9  1  0
  7 19  1  0
  8  9  2  0
  8 20  1  0
  9 21  1  0
M  END
