
     RDKit          3D

 10 10  0  0  0  0  0  0  0  0999 V2000
   -1.1827   -0.6191    0.2057 C   0  0  0  0  0  0  0  0  0  0  0  0
    1.5058    0.0783   -0.0971 C   0  0  0  0  0  0  0  0  0  0  0  0
    0.0191    0.0619   -0.0154 C   0  0  0  0  0  0  0  0  0  0  0  0
   -1.2601    0.7427   -0.1064 C   0  0  0  0  0  0  0  0  0  0  0  0
   -1.4826   -1.2952   -0.6210 H   0  0  0  0  0  0  0  0  0  0  0  0
   -1.3834   -0.8560    1.2707 H   0  0  0  0  0  0  0  0  0  0  0  0
    1.9331   -0.2225    0.8815 H   0  0  0  0  0  0  0  0  0  0  0  0
    1.8514    1.1011   -0.3527 H   0  0  0  0  0  0  0  0  0  0  0  0
    1.8407   -0.6317   -0.8810 H   0  0  0  0  0  0  0  0  0  0  0  0
   -1.8412    1.6405   -0.2843 H   0  0  0  0  0  0  0  0  0  0  0  0
  1  4  1  0
  1  6  1  0
  1  5  1  0
  1  3  1  0
  2  7  1  0
  2  3  1  0
  2  8  1  0
  2  9  1  0
  3  4  2  0
  4 10  1  0
M  END
