
     RDKit          3D

 23 24  0  0  0  0  0  0  0  0999 V2000
    0.6211    0.9331    1.9373 O   0  0  0  0  0  0  0  0  0  0  0  0
    1.1513   -1.7587    0.6463 O   0  0  0  0  0  0  0  0  0  0  0  0
    0.5318   -0.3745    2.0922 O   0  0  0  0  0  0  0  0  0  0  0  0
    1.6061   -0.8588    1.5032 O   0  0  0  0  0  0  0  0  0  0  0  0
   -0.1682    1.3278    0.8270 C   0  0  0  0  0  0  0  0  0  0  0  0
    0.9108   -1.1512   -0.6195 C   0  0  0  0  0  0  0  0  0  0  0  0
   -1.5330    0.6028    0.6416 C   0  0  0  0  0  0  0  0  0  0  0  0
   -0.5911   -1.2083   -0.9718 C   0  0  0  0  0  0  0  0  0  0  0  0
    0.6574    1.4576   -0.4682 C   0  0  0  0  0  0  0  0  0  0  0  0
    1.5396    0.2546   -0.8463 C   0  0  0  0  0  0  0  0  0  0  0  0
   -1.5226   -0.8758    0.2047 C   0  0  0  0  0  0  0  0  0  0  0  0
   -0.4694    2.3739    1.0584 H   0  0  0  0  0  0  0  0  0  0  0  0
    1.4180   -1.8081   -1.3608 H   0  0  0  0  0  0  0  0  0  0  0  0
   -1.3192   -1.5440    1.0668 H   0  0  0  0  0  0  0  0  0  0  0  0
   -2.5584   -1.1304   -0.1098 H   0  0  0  0  0  0  0  0  0  0  0  0
   -2.1227    1.1720   -0.1110 H   0  0  0  0  0  0  0  0  0  0  0  0
   -2.0991    0.6752    1.5957 H   0  0  0  0  0  0  0  0  0  0  0  0
   -0.8263   -2.2477   -1.2910 H   0  0  0  0  0  0  0  0  0  0  0  0
   -0.8211   -0.5559   -1.8419 H   0  0  0  0  0  0  0  0  0  0  0  0
   -0.0280    1.6879   -1.3133 H   0  0  0  0  0  0  0  0  0  0  0  0
    1.7723    0.3559   -1.9298 H   0  0  0  0  0  0  0  0  0  0  0  0
    1.3253    2.3421   -0.3715 H   0  0  0  0  0  0  0  0  0  0  0  0
    2.5254    0.3307   -0.3382 H   0  0  0  0  0  0  0  0  0  0  0  0
  1  5  1  0
  1  3  1  0
  2  6  1  0
  2  4  1  0
  3  4  1  0
  5  9  1  0
  5  7  1  0
  5 12  1  0
  6  8  1  0
  6 10  1  0
  6 13  1  0
  7 16  1  0
  7 17  1  0
  7 11  1  0
  8 19  1  0
  8 18  1  0
  8 11  1  0
  9 22  1  0
  9 10  1  0
  9 20  1  0
 10 21  1  0
 10 23  1  0
 11 14  1  0
 11 15  1  0
M  END
