
     RDKit          3D

 21 21  0  0  0  0  0  0  0  0999 V2000
   -2.9757    0.0277    0.5124 O   0  0  0  0  0  0  0  0  0  0  0  0
   -3.3263   -1.2261    0.3448 O   0  0  0  0  0  0  0  0  0  0  0  0
    1.7307   -0.8139    0.5121 C   0  0  0  0  0  0  0  0  0  0  0  0
    2.6362   -0.8110   -0.7277 C   0  0  0  0  0  0  0  0  0  0  0  0
    2.6301    0.3101    0.2380 C   0  0  0  0  0  0  0  0  0  0  0  0
   -1.8452    0.3181   -0.2364 C   0  0  0  0  0  0  0  0  0  0  0  0
   -1.7875    1.7451   -0.7048 C   0  0  0  0  0  0  0  0  0  0  0  0
    0.2991   -0.8164    0.1631 C   0  0  0  0  0  0  0  0  0  0  0  0
   -0.5918    0.0722    0.5486 C   0  0  0  0  0  0  0  0  0  0  0  0
    1.9906   -1.5135    1.3373 H   0  0  0  0  0  0  0  0  0  0  0  0
    3.3930   -1.6116   -0.7083 H   0  0  0  0  0  0  0  0  0  0  0  0
    2.1774   -0.6687   -1.7149 H   0  0  0  0  0  0  0  0  0  0  0  0
    3.5431    0.4319    0.8348 H   0  0  0  0  0  0  0  0  0  0  0  0
    2.2120    1.2869   -0.1084 H   0  0  0  0  0  0  0  0  0  0  0  0
   -1.8416   -0.3424   -1.1388 H   0  0  0  0  0  0  0  0  0  0  0  0
   -2.7652    2.1386   -1.0193 H   0  0  0  0  0  0  0  0  0  0  0  0
   -1.3120    2.3495    0.0900 H   0  0  0  0  0  0  0  0  0  0  0  0
   -1.1240    1.7736   -1.6036 H   0  0  0  0  0  0  0  0  0  0  0  0
   -0.0195   -1.5522   -0.5816 H   0  0  0  0  0  0  0  0  0  0  0  0
   -0.4160    0.7734    1.3653 H   0  0  0  0  0  0  0  0  0  0  0  0
   -2.6073   -1.8711    0.5464 H   0  0  0  0  0  0  0  0  0  0  0  0
  1  2  1  0
  1  6  1  0
  2 21  1  0
  3  8  1  0
  3  5  1  0
  3 10  1  0
  3  4  1  0
  4  5  1  0
  4 11  1  0
  4 12  1  0
  5 14  1  0
  5 13  1  0
  6 15  1  0
  6  7  1  0
  6  9  1  0
  7 17  1  0
  7 18  1  0
  7 16  1  0
  8 19  1  0
  8  9  2  3
  9 20  1  0
M  END
