
     RDKit          3D

 17 18  0  0  0  0  0  0  0  0999 V2000
   -0.7441    0.0140   -0.6030 C   0  0  0  0  0  0  0  0  0  0  0  0
    0.7181   -0.4111   -0.6632 C   0  0  0  0  0  0  0  0  0  0  0  0
   -1.0371   -1.1534    0.3450 C   0  0  0  0  0  0  0  0  0  0  0  0
    0.4239   -1.5848    0.2676 C   0  0  0  0  0  0  0  0  0  0  0  0
   -0.7634    1.4115    0.0395 C   0  0  0  0  0  0  0  0  0  0  0  0
    1.4666    0.7040   -0.0143 C   0  0  0  0  0  0  0  0  0  0  0  0
    0.6648    1.6884    0.3610 C   0  0  0  0  0  0  0  0  0  0  0  0
   -1.2692   -0.0581   -1.5812 H   0  0  0  0  0  0  0  0  0  0  0  0
    1.0687   -0.6862   -1.6817 H   0  0  0  0  0  0  0  0  0  0  0  0
    0.5471   -2.5648   -0.2427 H   0  0  0  0  0  0  0  0  0  0  0  0
    0.9415   -1.5244    1.2509 H   0  0  0  0  0  0  0  0  0  0  0  0
   -1.7218   -1.9022   -0.1097 H   0  0  0  0  0  0  0  0  0  0  0  0
   -1.3330   -0.8472    1.3722 H   0  0  0  0  0  0  0  0  0  0  0  0
   -1.3868    1.4470    0.9581 H   0  0  0  0  0  0  0  0  0  0  0  0
   -1.1304    2.1651   -0.6890 H   0  0  0  0  0  0  0  0  0  0  0  0
    2.5401    0.7101    0.1426 H   0  0  0  0  0  0  0  0  0  0  0  0
    1.0150    2.5924    0.8480 H   0  0  0  0  0  0  0  0  0  0  0  0
  1  2  1  0
  1  8  1  0
  1  5  1  0
  1  3  1  0
  2  6  1  0
  2  4  1  0
  2  9  1  0
  3 13  1  0
  3 12  1  0
  3  4  1  0
  4 11  1  0
  4 10  1  0
  5 15  1  0
  5  7  1  0
  5 14  1  0
  6  7  2  0
  6 16  1  0
  7 17  1  0
M  END
