
     RDKit          3D

 30 30  0  0  0  0  0  0  0  0999 V2000
   -0.5989    0.5510   -0.6771 C   0  0  0  0  0  0  0  0  0  0  0  0
   -1.7443   -0.3318   -0.2299 C   0  0  0  0  0  0  0  0  0  0  0  0
   -0.8981    1.9410   -0.1876 C   0  0  0  0  0  0  0  0  0  0  0  0
   -1.3575   -1.7803   -0.1174 C   0  0  0  0  0  0  0  0  0  0  0  0
   -2.3692   -2.4358    0.8148 C   0  0  0  0  0  0  0  0  0  0  0  0
   -0.0799    3.0059   -0.8558 C   0  0  0  0  0  0  0  0  0  0  0  0
    0.7091    0.0637   -0.2075 C   0  0  0  0  0  0  0  0  0  0  0  0
    1.6054   -0.6146   -1.0221 C   0  0  0  0  0  0  0  0  0  0  0  0
    1.1567    0.4990    1.0298 C   0  0  0  0  0  0  0  0  0  0  0  0
    2.9305   -0.7717   -0.6517 C   0  0  0  0  0  0  0  0  0  0  0  0
    3.3510   -0.4292    0.6209 C   0  0  0  0  0  0  0  0  0  0  0  0
    2.4245    0.1484    1.4764 C   0  0  0  0  0  0  0  0  0  0  0  0
   -0.5746    0.5659   -1.7905 H   0  0  0  0  0  0  0  0  0  0  0  0
   -0.3377   -1.9356    0.2606 H   0  0  0  0  0  0  0  0  0  0  0  0
   -1.4752   -2.2358   -1.1111 H   0  0  0  0  0  0  0  0  0  0  0  0
   -2.0259    0.0305    0.7874 H   0  0  0  0  0  0  0  0  0  0  0  0
   -2.5672   -0.2131   -0.9673 H   0  0  0  0  0  0  0  0  0  0  0  0
   -0.7639    2.0485    0.9002 H   0  0  0  0  0  0  0  0  0  0  0  0
   -1.9807    2.1400   -0.3948 H   0  0  0  0  0  0  0  0  0  0  0  0
   -2.1954   -2.1705    1.8745 H   0  0  0  0  0  0  0  0  0  0  0  0
   -2.3467   -3.5417    0.6512 H   0  0  0  0  0  0  0  0  0  0  0  0
   -3.3962   -2.0592    0.5780 H   0  0  0  0  0  0  0  0  0  0  0  0
   -0.0343    2.9254   -1.9504 H   0  0  0  0  0  0  0  0  0  0  0  0
   -0.5446    3.9874   -0.5887 H   0  0  0  0  0  0  0  0  0  0  0  0
    0.9409    3.0107   -0.4126 H   0  0  0  0  0  0  0  0  0  0  0  0
    1.2315   -1.0534   -1.9487 H   0  0  0  0  0  0  0  0  0  0  0  0
    3.6373   -1.3266   -1.2670 H   0  0  0  0  0  0  0  0  0  0  0  0
    4.2456   -0.8800    1.0503 H   0  0  0  0  0  0  0  0  0  0  0  0
    2.6579    0.2459    2.5357 H   0  0  0  0  0  0  0  0  0  0  0  0
    0.4001    0.6163    1.8004 H   0  0  0  0  0  0  0  0  0  0  0  0
  1  2  1  0
  1  3  1  0
  1 13  1  0
  1  7  1  0
  2 17  1  0
  2 16  1  0
  2  4  1  0
  3 18  1  0
  3 19  1  0
  3  6  1  0
  4 14  1  0
  4  5  1  0
  4 15  1  0
  5 22  1  0
  5 20  1  0
  5 21  1  0
  6 25  1  0
  6 24  1  0
  6 23  1  0
  7  9  2  0
  7  8  1  0
  8 10  2  0
  8 26  1  0
  9 30  1  0
  9 12  1  0
 10 27  1  0
 10 11  1  0
 11 12  2  0
 11 28  1  0
 12 29  1  0
M  END
