
     RDKit          3D

 30 30  0  0  0  0  0  0  0  0999 V2000
   -0.6325    0.5338   -0.5196 C   0  0  0  0  0  0  0  0  0  0  0  0
   -1.6845   -0.3263    0.2166 C   0  0  0  0  0  0  0  0  0  0  0  0
   -0.9327    2.0369   -0.3238 C   0  0  0  0  0  0  0  0  0  0  0  0
   -1.5199   -1.8255   -0.0781 C   0  0  0  0  0  0  0  0  0  0  0  0
   -2.6146   -2.6437    0.6005 C   0  0  0  0  0  0  0  0  0  0  0  0
   -0.0129    2.9285   -1.1592 C   0  0  0  0  0  0  0  0  0  0  0  0
    0.7810    0.1860   -0.0767 C   0  0  0  0  0  0  0  0  0  0  0  0
    1.7038   -0.3211   -1.0097 C   0  0  0  0  0  0  0  0  0  0  0  0
    1.1900    0.3607    1.2600 C   0  0  0  0  0  0  0  0  0  0  0  0
    3.0048   -0.6458   -0.6144 C   0  0  0  0  0  0  0  0  0  0  0  0
    3.3987   -0.4683    0.7138 C   0  0  0  0  0  0  0  0  0  0  0  0
    2.4922    0.0344    1.6497 C   0  0  0  0  0  0  0  0  0  0  0  0
   -0.7452    0.3210   -1.6072 H   0  0  0  0  0  0  0  0  0  0  0  0
   -0.5337   -2.1802    0.2914 H   0  0  0  0  0  0  0  0  0  0  0  0
   -1.5682   -2.0000   -1.1750 H   0  0  0  0  0  0  0  0  0  0  0  0
   -1.6244   -0.1527    1.3131 H   0  0  0  0  0  0  0  0  0  0  0  0
   -2.6992   -0.0135   -0.1159 H   0  0  0  0  0  0  0  0  0  0  0  0
   -0.8407    2.3182    0.7474 H   0  0  0  0  0  0  0  0  0  0  0  0
   -1.9804    2.2443   -0.6335 H   0  0  0  0  0  0  0  0  0  0  0  0
   -2.5745   -2.5028    1.7016 H   0  0  0  0  0  0  0  0  0  0  0  0
   -2.4675   -3.7209    0.3747 H   0  0  0  0  0  0  0  0  0  0  0  0
   -3.6145   -2.3362    0.2269 H   0  0  0  0  0  0  0  0  0  0  0  0
   -0.0850    2.6589   -2.2343 H   0  0  0  0  0  0  0  0  0  0  0  0
   -0.3163    3.9898   -1.0388 H   0  0  0  0  0  0  0  0  0  0  0  0
    1.0410    2.8266   -0.8247 H   0  0  0  0  0  0  0  0  0  0  0  0
    1.4177   -0.4663   -2.0439 H   0  0  0  0  0  0  0  0  0  0  0  0
    3.7083   -1.0355   -1.3387 H   0  0  0  0  0  0  0  0  0  0  0  0
    4.4065   -0.7204    1.0177 H   0  0  0  0  0  0  0  0  0  0  0  0
    2.7987    0.1714    2.6787 H   0  0  0  0  0  0  0  0  0  0  0  0
    0.5040    0.7486    2.0015 H   0  0  0  0  0  0  0  0  0  0  0  0
  1  2  1  0
  1  3  1  0
  1 13  1  0
  1  7  1  0
  2 17  1  0
  2 16  1  0
  2  4  1  0
  3 18  1  0
  3 19  1  0
  3  6  1  0
  4 14  1  0
  4  5  1  0
  4 15  1  0
  5 22  1  0
  5 20  1  0
  5 21  1  0
  6 25  1  0
  6 24  1  0
  6 23  1  0
  7  9  2  0
  7  8  1  0
  8 10  2  0
  8 26  1  0
  9 30  1  0
  9 12  1  0
 10 27  1  0
 10 11  1  0
 11 12  2  0
 11 28  1  0
 12 29  1  0
M  END
