
     RDKit          3D

 21 22  0  0  0  0  0  0  0  0999 V2000
   -0.0504   -0.7484   -0.6598 C   0  0  0  0  0  0  0  0  0  0  0  0
   -0.1004    0.8008   -0.5888 C   0  0  0  0  0  0  0  0  0  0  0  0
   -1.1721   -1.2540    0.2499 C   0  0  0  0  0  0  0  0  0  0  0  0
   -1.2498    1.1478    0.3600 C   0  0  0  0  0  0  0  0  0  0  0  0
   -2.1288   -0.0874    0.4058 C   0  0  0  0  0  0  0  0  0  0  0  0
    1.2697   -1.3788   -0.2862 C   0  0  0  0  0  0  0  0  0  0  0  0
    1.1774    1.4782   -0.1553 C   0  0  0  0  0  0  0  0  0  0  0  0
    2.3296   -0.6627    0.0851 C   0  0  0  0  0  0  0  0  0  0  0  0
    2.2823    0.8009    0.1522 C   0  0  0  0  0  0  0  0  0  0  0  0
   -0.2817   -1.0573   -1.7040 H   0  0  0  0  0  0  0  0  0  0  0  0
   -0.3543    1.1882   -1.6011 H   0  0  0  0  0  0  0  0  0  0  0  0
   -2.6954   -0.1495    1.3602 H   0  0  0  0  0  0  0  0  0  0  0  0
   -2.8427   -0.0714   -0.4476 H   0  0  0  0  0  0  0  0  0  0  0  0
   -1.6858   -2.1367   -0.1895 H   0  0  0  0  0  0  0  0  0  0  0  0
   -0.7775   -1.5281    1.2549 H   0  0  0  0  0  0  0  0  0  0  0  0
   -1.8206    2.0320    0.0015 H   0  0  0  0  0  0  0  0  0  0  0  0
   -0.8707    1.3537    1.3870 H   0  0  0  0  0  0  0  0  0  0  0  0
    1.3560   -2.4579   -0.3263 H   0  0  0  0  0  0  0  0  0  0  0  0
    1.1938    2.5597   -0.0963 H   0  0  0  0  0  0  0  0  0  0  0  0
    3.2513   -1.1693    0.3416 H   0  0  0  0  0  0  0  0  0  0  0  0
    3.1702    1.3403    0.4566 H   0  0  0  0  0  0  0  0  0  0  0  0
  1  6  1  0
  1  3  1  0
  1  2  1  0
  1 10  1  0
  2 11  1  0
  2  7  1  0
  2  4  1  0
  3 15  1  0
  3  5  1  0
  3 14  1  0
  4 17  1  0
  4  5  1  0
  4 16  1  0
  5 13  1  0
  5 12  1  0
  6  8  2  0
  6 18  1  0
  7 19  1  0
  7  9  2  0
  8 20  1  0
  8  9  1  0
  9 21  1  0
M  END
