
     RDKit          3D

 19 20  0  0  0  0  0  0  0  0999 V2000
   -0.0664   -0.1895   -0.0802 C   0  0  0  0  0  0  0  0  0  0  0  0
   -1.3412   -0.6864    0.6347 C   0  0  0  0  0  0  0  0  0  0  0  0
   -0.7164   -1.4994   -0.4802 C   0  0  0  0  0  0  0  0  0  0  0  0
   -0.7787    1.1116   -0.4234 C   0  0  0  0  0  0  0  0  0  0  0  0
   -2.0378    0.6115    0.2550 C   0  0  0  0  0  0  0  0  0  0  0  0
    1.1480   -0.1748    0.8664 C   0  0  0  0  0  0  0  0  0  0  0  0
    2.3966    0.2664    0.1133 C   0  0  0  0  0  0  0  0  0  0  0  0
   -1.1321   -0.9177    1.7029 H   0  0  0  0  0  0  0  0  0  0  0  0
   -0.3398    1.9972    0.0861 H   0  0  0  0  0  0  0  0  0  0  0  0
   -0.9044    1.2404   -1.5201 H   0  0  0  0  0  0  0  0  0  0  0  0
   -2.8751    0.4457   -0.4572 H   0  0  0  0  0  0  0  0  0  0  0  0
   -2.3144    1.2134    1.1474 H   0  0  0  0  0  0  0  0  0  0  0  0
   -0.1951   -2.4160   -0.1330 H   0  0  0  0  0  0  0  0  0  0  0  0
   -1.2732   -1.4701   -1.4410 H   0  0  0  0  0  0  0  0  0  0  0  0
    1.3300   -1.1860    1.2921 H   0  0  0  0  0  0  0  0  0  0  0  0
    0.9654    0.5267    1.7098 H   0  0  0  0  0  0  0  0  0  0  0  0
    2.2624    1.2930   -0.2892 H   0  0  0  0  0  0  0  0  0  0  0  0
    3.2671    0.2659    0.8027 H   0  0  0  0  0  0  0  0  0  0  0  0
    2.6050   -0.4318   -0.7254 H   0  0  0  0  0  0  0  0  0  0  0  0
  1  3  1  0
  1  2  1  0
  1  6  1  0
  1  4  1  0
  2  3  1  0
  2  8  1  0
  2  5  1  0
  3 14  1  0
  3 13  1  0
  4  9  1  0
  4 10  1  0
  4  5  1  0
  5 12  1  0
  5 11  1  0
  6  7  1  0
  6 15  1  0
  6 16  1  0
  7 18  1  0
  7 19  1  0
  7 17  1  0
M  END
