
     RDKit          3D

 23 24  0  0  0  0  0  0  0  0999 V2000
   -1.4566    1.9356    1.2332 O   0  0  0  0  0  0  0  0  0  0  0  0
    2.1703   -1.0695    0.3037 O   0  0  0  0  0  0  0  0  0  0  0  0
    3.1981   -0.2751    0.0559 O   0  0  0  0  0  0  0  0  0  0  0  0
    3.8935   -0.9031   -0.8711 O   0  0  0  0  0  0  0  0  0  0  0  0
   -1.6303    1.4601   -0.0833 C   0  0  0  0  0  0  0  0  0  0  0  0
   -0.2827    1.7319    0.4779 C   0  0  0  0  0  0  0  0  0  0  0  0
    1.0094   -0.3804   -0.1067 C   0  0  0  0  0  0  0  0  0  0  0  0
    0.5539    0.5682    1.0225 C   0  0  0  0  0  0  0  0  0  0  0  0
   -2.1514    0.0195   -0.1104 C   0  0  0  0  0  0  0  0  0  0  0  0
   -0.0677   -1.4312   -0.4346 C   0  0  0  0  0  0  0  0  0  0  0  0
   -1.3372   -0.8504   -1.0773 C   0  0  0  0  0  0  0  0  0  0  0  0
   -2.0659    2.2298   -0.7546 H   0  0  0  0  0  0  0  0  0  0  0  0
    1.2115    0.2023   -1.0390 H   0  0  0  0  0  0  0  0  0  0  0  0
    0.2034    2.6881    0.1914 H   0  0  0  0  0  0  0  0  0  0  0  0
   -1.0790   -0.2810   -1.9974 H   0  0  0  0  0  0  0  0  0  0  0  0
   -1.9754   -1.7045   -1.3925 H   0  0  0  0  0  0  0  0  0  0  0  0
    0.3687   -2.1590   -1.1536 H   0  0  0  0  0  0  0  0  0  0  0  0
   -0.3347   -2.0056    0.4800 H   0  0  0  0  0  0  0  0  0  0  0  0
   -3.2028    0.0548   -0.4675 H   0  0  0  0  0  0  0  0  0  0  0  0
   -2.1758   -0.4338    0.9051 H   0  0  0  0  0  0  0  0  0  0  0  0
    0.0150    0.0067    1.8175 H   0  0  0  0  0  0  0  0  0  0  0  0
    1.4461    1.0161    1.5101 H   0  0  0  0  0  0  0  0  0  0  0  0
    3.6898   -0.4193   -1.7120 H   0  0  0  0  0  0  0  0  0  0  0  0
  1  5  1  0
  1  6  1  0
  2  3  1  0
  2  7  1  0
  3  4  1  0
  4 23  1  0
  5  9  1  0
  5  6  1  0
  5 12  1  0
  6 14  1  0
  6  8  1  0
  7 10  1  0
  7  8  1  0
  7 13  1  0
  8 22  1  0
  8 21  1  0
  9 19  1  0
  9 11  1  0
  9 20  1  0
 10 17  1  0
 10 11  1  0
 10 18  1  0
 11 15  1  0
 11 16  1  0
M  END
