
     RDKit          3D

 21 21  0  0  0  0  0  0  0  0999 V2000
   -2.1259    0.0949   -0.1294 O   0  0  0  0  0  0  0  0  0  0  0  0
    2.7710    0.1016    0.3010 O   0  0  0  0  0  0  0  0  0  0  0  0
    0.9810   -1.3521   -0.0297 C   0  0  0  0  0  0  0  0  0  0  0  0
    1.3668    0.0560    0.2853 C   0  0  0  0  0  0  0  0  0  0  0  0
   -0.4708   -1.6400   -0.0816 C   0  0  0  0  0  0  0  0  0  0  0  0
   -1.3610   -0.7246    0.7018 C   0  0  0  0  0  0  0  0  0  0  0  0
   -1.6654    1.3955   -0.1972 C   0  0  0  0  0  0  0  0  0  0  0  0
    0.8601    0.9873   -0.7482 C   0  0  0  0  0  0  0  0  0  0  0  0
   -0.3629    1.5058   -0.9169 C   0  0  0  0  0  0  0  0  0  0  0  0
    1.5586   -2.0104    0.6675 H   0  0  0  0  0  0  0  0  0  0  0  0
    1.4082   -1.5846   -1.0391 H   0  0  0  0  0  0  0  0  0  0  0  0
   -0.8314   -1.6011   -1.1411 H   0  0  0  0  0  0  0  0  0  0  0  0
   -0.5960   -2.7150    0.2088 H   0  0  0  0  0  0  0  0  0  0  0  0
    1.0589    0.3966    1.2882 H   0  0  0  0  0  0  0  0  0  0  0  0
   -0.8689   -0.1808    1.5148 H   0  0  0  0  0  0  0  0  0  0  0  0
   -2.1133   -1.3901    1.2023 H   0  0  0  0  0  0  0  0  0  0  0  0
   -2.4121    1.9563   -0.8136 H   0  0  0  0  0  0  0  0  0  0  0  0
   -1.6228    1.9129    0.7732 H   0  0  0  0  0  0  0  0  0  0  0  0
    1.6233    1.6906   -1.0892 H   0  0  0  0  0  0  0  0  0  0  0  0
   -0.3059    2.2839   -1.6666 H   0  0  0  0  0  0  0  0  0  0  0  0
    3.1086    0.8174    0.9098 H   0  0  0  0  0  0  0  0  0  0  0  0
  1  6  1  0
  1  7  1  0
  2 21  1  0
  2  4  1  0
  3 10  1  0
  3 11  1  0
  3  4  1  0
  3  5  1  0
  4  8  1  0
  4 14  1  0
  5  6  1  0
  5 13  1  0
  5 12  1  0
  6 15  1  0
  6 16  1  0
  7  9  1  0
  7 18  1  0
  7 17  1  0
  8  9  2  0
  8 19  1  0
  9 20  1  0
M  END
