
     RDKit          3D

 12 12  0  0  0  0  0  0  0  0999 V2000
   -1.4239   -0.2536   -0.0902 C   0  0  0  0  0  0  0  0  0  0  0  0
   -0.6723    1.0491   -0.1856 C   0  0  0  0  0  0  0  0  0  0  0  0
    0.6645    1.0735   -0.1437 C   0  0  0  0  0  0  0  0  0  0  0  0
    1.4301   -0.1670    0.0808 C   0  0  0  0  0  0  0  0  0  0  0  0
    0.8063   -1.2923    0.4421 C   0  0  0  0  0  0  0  0  0  0  0  0
   -0.6643   -1.2817    0.7590 C   0  0  0  0  0  2  0  0  0  0  0  0
   -1.5712   -0.6605   -1.1129 H   0  0  0  0  0  0  0  0  0  0  0  0
   -2.4199   -0.0760    0.3659 H   0  0  0  0  0  0  0  0  0  0  0  0
   -1.2195    1.9662   -0.3635 H   0  0  0  0  0  0  0  0  0  0  0  0
    1.1922    2.0075   -0.2873 H   0  0  0  0  0  0  0  0  0  0  0  0
    2.5033   -0.1651   -0.0601 H   0  0  0  0  0  0  0  0  0  0  0  0
    1.3748   -2.2001    0.5956 H   0  0  0  0  0  0  0  0  0  0  0  0
  1  7  1  0
  1  6  1  0
  1  8  1  0
  1  2  1  0
  2  3  2  0
  2  9  1  0
  3 10  1  0
  3  4  1  0
  4  5  2  0
  4 11  1  0
  5 12  1  0
  5  6  1  0
M  RAD  1   6   3
M  END
