
     RDKit          3D

 17 18  0  0  0  0  0  0  0  0999 V2000
   -0.6963    0.1868    0.6013 C   0  0  0  0  0  0  0  0  0  0  0  0
    0.4499   -0.2348   -0.3332 C   0  0  0  0  0  0  0  0  0  0  0  0
   -1.8659    0.8679   -0.0915 C   0  0  0  0  0  0  0  0  0  0  0  0
   -2.0017   -0.5660    0.3967 C   0  0  0  0  0  0  0  0  0  0  0  0
    1.5299    0.7115   -0.3909 C   0  0  0  0  0  0  0  0  0  0  0  0
    1.3677   -1.2074    0.3342 C   0  0  0  0  0  0  0  0  0  0  0  0
    2.4178   -0.2929    0.2684 C   0  0  0  0  0  0  0  0  0  0  0  0
   -0.4946    0.5211    1.6425 H   0  0  0  0  0  0  0  0  0  0  0  0
    0.1289   -0.5981   -1.3367 H   0  0  0  0  0  0  0  0  0  0  0  0
   -1.7909    0.9646   -1.1959 H   0  0  0  0  0  0  0  0  0  0  0  0
   -2.4026    1.6103    0.5361 H   0  0  0  0  0  0  0  0  0  0  0  0
   -2.6196   -0.6725    1.3132 H   0  0  0  0  0  0  0  0  0  0  0  0
   -2.0098   -1.3219   -0.4177 H   0  0  0  0  0  0  0  0  0  0  0  0
    1.4028    1.6206    0.2390 H   0  0  0  0  0  0  0  0  0  0  0  0
    1.8652    0.9340   -1.4278 H   0  0  0  0  0  0  0  0  0  0  0  0
    3.4583   -0.3043    0.5742 H   0  0  0  0  0  0  0  0  0  0  0  0
    1.2609   -2.2190    0.7109 H   0  0  0  0  0  0  0  0  0  0  0  0
  1  3  1  0
  1  4  1  0
  1  8  1  0
  1  2  1  0
  2  6  1  0
  2  5  1  0
  2  9  1  0
  3 10  1  0
  3 11  1  0
  3  4  1  0
  4 12  1  0
  4 13  1  0
  5  7  1  0
  5 15  1  0
  5 14  1  0
  6 17  1  0
  6  7  2  0
  7 16  1  0
M  END
