
     RDKit          3D

 20 21  0  0  0  0  0  0  0  0999 V2000
   -2.3865   -0.8301    0.5384 C   0  0  0  0  0  0  0  0  0  0  0  0
    3.1487   -0.1297    0.1854 C   0  0  0  0  0  0  0  0  0  0  0  0
    1.8379    0.1228   -0.4933 C   0  0  0  0  0  0  0  0  0  0  0  0
   -0.3625   -0.4388   -0.8393 C   0  0  0  0  0  0  0  0  0  0  0  0
   -0.3074    0.9289   -0.3293 C   0  0  0  0  0  0  0  0  0  0  0  0
   -1.4803   -1.1314   -0.6137 C   0  0  0  0  0  0  0  0  0  0  0  0
   -2.5032    0.6573    0.6459 C   0  0  0  0  0  0  0  0  0  0  0  0
    1.0468   -0.8041   -1.0376 C   0  0  0  0  0  0  0  0  0  0  0  0
    0.9589    1.2910   -0.3500 C   0  0  0  0  0  0  0  0  0  0  0  0
   -1.5702    1.4754    0.1576 C   0  0  0  0  0  0  0  0  0  0  0  0
   -1.9047   -1.2056    1.4649 H   0  0  0  0  0  0  0  0  0  0  0  0
   -3.3557   -1.3136    0.3456 H   0  0  0  0  0  0  0  0  0  0  0  0
    3.2433   -1.1824    0.5237 H   0  0  0  0  0  0  0  0  0  0  0  0
    3.2740    0.4929    1.0930 H   0  0  0  0  0  0  0  0  0  0  0  0
    4.0105    0.0621   -0.4655 H   0  0  0  0  0  0  0  0  0  0  0  0
   -1.5496   -2.0737   -1.1585 H   0  0  0  0  0  0  0  0  0  0  0  0
   -3.1720    1.0075    1.4343 H   0  0  0  0  0  0  0  0  0  0  0  0
    1.3807   -1.7431   -1.4310 H   0  0  0  0  0  0  0  0  0  0  0  0
    1.2935    2.2713   -0.0315 H   0  0  0  0  0  0  0  0  0  0  0  0
   -1.6022    2.5433    0.3609 H   0  0  0  0  0  0  0  0  0  0  0  0
  1  6  1  0
  1 12  1  0
  1  7  1  0
  1 11  1  0
  2 13  1  0
  2 15  1  0
  2 14  1  0
  2  3  1  0
  3  8  2  0
  3  9  1  0
  4  6  2  0
  4  8  1  0
  4  5  1  0
  5 10  1  0
  5  9  2  0
  6 16  1  0
  7 10  2  0
  7 17  1  0
  8 18  1  0
  9 19  1  0
 10 20  1  0
M  END
