
     RDKit          3D

 21 21  0  0  0  0  0  0  0  0999 V2000
    2.0173   -0.2228    0.5385 O   0  0  0  0  0  0  0  0  0  0  0  0
    2.5436   -1.3357    1.0183 O   0  0  0  0  0  0  0  0  0  0  0  0
    3.8568   -1.2308    0.8736 O   0  0  0  0  0  0  0  0  0  0  0  0
    4.2069   -0.7902   -0.3018 O   0  0  0  0  0  0  0  0  0  0  0  0
   -1.4531   -1.1202   -0.4112 C   0  0  0  0  0  0  0  0  0  0  0  0
   -0.0007   -0.9205   -0.5520 C   0  0  0  0  0  0  0  0  0  0  0  0
   -2.3193    0.0286   -0.1134 C   0  0  0  0  0  0  0  0  0  0  0  0
    0.6411    0.0016    0.4038 C   0  0  0  0  0  0  0  0  0  0  0  0
   -1.8510    1.3517   -0.5983 C   0  0  0  0  0  0  0  0  0  0  0  0
    0.3979    1.3168    0.4381 C   0  0  0  0  0  0  0  0  0  0  0  0
   -0.8006    1.9947   -0.0790 C   0  0  0  0  0  0  0  0  0  0  0  0
   -1.8107   -1.5842   -1.3676 H   0  0  0  0  0  0  0  0  0  0  0  0
   -1.6284   -1.9203    0.3538 H   0  0  0  0  0  0  0  0  0  0  0  0
   -2.5306    0.0420    0.9866 H   0  0  0  0  0  0  0  0  0  0  0  0
   -3.3268   -0.1195   -0.5797 H   0  0  0  0  0  0  0  0  0  0  0  0
    0.5036   -1.9151   -0.4505 H   0  0  0  0  0  0  0  0  0  0  0  0
    0.2281   -0.5834   -1.5944 H   0  0  0  0  0  0  0  0  0  0  0  0
   -2.6228    2.0720   -0.8802 H   0  0  0  0  0  0  0  0  0  0  0  0
   -0.8021    3.0716   -0.0644 H   0  0  0  0  0  0  0  0  0  0  0  0
    1.1055    1.9385    0.9911 H   0  0  0  0  0  0  0  0  0  0  0  0
    3.6452   -0.0748   -0.6624 H   0  0  0  0  0  0  0  0  0  0  0  0
  1  8  1  0
  1  2  1  0
  2  3  1  0
  3  4  1  0
  4 21  1  0
  5 12  1  0
  5 13  1  0
  5  7  1  0
  5  6  1  0
  6 17  1  0
  6  8  1  0
  6 16  1  0
  7  9  1  0
  7 15  1  0
  7 14  1  0
  8 10  2  0
  9 18  1  0
  9 11  2  0
 10 20  1  0
 10 11  1  0
 11 19  1  0
M  END
