
     RDKit          3D

 21 21  0  0  0  0  0  0  0  0999 V2000
    1.9554   -0.0455    0.4225 O   0  0  0  0  0  0  0  0  0  0  0  0
    2.4740   -1.2751    0.2930 O   0  0  0  0  0  0  0  0  0  0  0  0
    3.6521   -1.2038    0.8789 O   0  0  0  0  0  0  0  0  0  0  0  0
    4.5213   -1.2079   -0.1116 O   0  0  0  0  0  0  0  0  0  0  0  0
   -1.3849   -1.1898   -0.2261 C   0  0  0  0  0  0  0  0  0  0  0  0
   -0.0901   -0.7195   -0.9132 C   0  0  0  0  0  0  0  0  0  0  0  0
   -2.1853   -0.0909    0.4963 C   0  0  0  0  0  0  0  0  0  0  0  0
    0.7003    0.2833   -0.0967 C   0  0  0  0  0  0  0  0  0  0  0  0
   -2.1916    1.2280   -0.2297 C   0  0  0  0  0  0  0  0  0  0  0  0
    0.2422    1.5293    0.0990 C   0  0  0  0  0  0  0  0  0  0  0  0
   -1.0911    1.9814   -0.3511 C   0  0  0  0  0  0  0  0  0  0  0  0
   -2.0344   -1.6601   -0.9964 H   0  0  0  0  0  0  0  0  0  0  0  0
   -1.1330   -1.9809    0.5134 H   0  0  0  0  0  0  0  0  0  0  0  0
   -1.7691    0.0611    1.5164 H   0  0  0  0  0  0  0  0  0  0  0  0
   -3.2331   -0.4387    0.6237 H   0  0  0  0  0  0  0  0  0  0  0  0
    0.5266   -1.6132   -1.1421 H   0  0  0  0  0  0  0  0  0  0  0  0
   -0.3402   -0.2629   -1.8961 H   0  0  0  0  0  0  0  0  0  0  0  0
   -3.1388    1.6271   -0.5710 H   0  0  0  0  0  0  0  0  0  0  0  0
   -1.1861    2.9860   -0.7428 H   0  0  0  0  0  0  0  0  0  0  0  0
    0.8874    2.2574    0.5745 H   0  0  0  0  0  0  0  0  0  0  0  0
    4.8183   -0.2654   -0.1918 H   0  0  0  0  0  0  0  0  0  0  0  0
  1  8  1  0
  1  2  1  0
  2  3  1  0
  3  4  1  0
  4 21  1  0
  5 12  1  0
  5 13  1  0
  5  7  1  0
  5  6  1  0
  6 17  1  0
  6  8  1  0
  6 16  1  0
  7  9  1  0
  7 15  1  0
  7 14  1  0
  8 10  2  0
  9 18  1  0
  9 11  2  0
 10 20  1  0
 10 11  1  0
 11 19  1  0
M  END
