
     RDKit          3D

 21 21  0  0  0  0  0  0  0  0999 V2000
   -1.8245    1.0430   -0.2696 O   0  0  0  0  0  0  0  0  0  0  0  0
    4.2567    1.3717   -0.4396 O   0  0  0  0  0  0  0  0  0  0  0  0
   -1.3531   -0.2435   -0.1568 C   0  0  0  0  0  0  0  0  0  0  0  0
    0.0444   -0.4233    0.3453 C   0  0  0  0  0  0  0  0  0  0  0  0
    1.1089   -0.1025   -0.6721 C   0  0  0  0  0  0  0  0  0  0  0  0
   -2.3335   -0.4357    0.9945 C   0  0  0  0  0  0  0  0  0  0  0  0
    2.3557    0.2052    0.1538 C   0  0  0  0  0  0  0  0  0  0  0  0
   -3.0688    0.5869    0.1668 C   0  0  0  0  0  0  0  0  0  0  0  0
    3.5518    0.4024   -0.6819 C   0  0  0  0  0  0  0  0  0  0  0  0
   -1.6536   -0.8798   -0.9994 H   0  0  0  0  0  0  0  0  0  0  0  0
    1.3487   -0.9740   -1.3337 H   0  0  0  0  0  0  0  0  0  0  0  0
    0.8451    0.7336   -1.3381 H   0  0  0  0  0  0  0  0  0  0  0  0
    0.1529   -1.5101    0.5910 H   0  0  0  0  0  0  0  0  0  0  0  0
    0.1819    0.1846    1.2550 H   0  0  0  0  0  0  0  0  0  0  0  0
   -2.7850   -1.4354    1.0224 H   0  0  0  0  0  0  0  0  0  0  0  0
   -1.9162   -0.0838    1.9494 H   0  0  0  0  0  0  0  0  0  0  0  0
    2.4943   -0.6430    0.8389 H   0  0  0  0  0  0  0  0  0  0  0  0
    2.1025    1.1143    0.7349 H   0  0  0  0  0  0  0  0  0  0  0  0
   -3.6178    1.2818    0.8373 H   0  0  0  0  0  0  0  0  0  0  0  0
   -3.6946    0.0905   -0.5876 H   0  0  0  0  0  0  0  0  0  0  0  0
    3.8043   -0.2830   -1.4720 H   0  0  0  0  0  0  0  0  0  0  0  0
  1  8  1  0
  1  3  1  0
  2  9  2  0
  3  6  1  0
  3  4  1  0
  3 10  1  0
  4  5  1  0
  4 13  1  0
  4 14  1  0
  5 11  1  0
  5 12  1  0
  5  7  1  0
  6  8  1  0
  6 15  1  0
  6 16  1  0
  7  9  1  0
  7 18  1  0
  7 17  1  0
  8 19  1  0
  8 20  1  0
  9 21  1  0
M  END
