
     RDKit          3D

 20 20  0  0  0  0  0  0  0  0999 V2000
   -0.0278    0.0079   -0.0264 C   0  0  0  0  0  0  0  0  0  0  0  0
   -1.1113   -0.9382    0.0609 C   0  0  0  0  0  0  0  0  0  0  0  0
   -2.4401   -0.4629    0.0732 C   0  0  0  0  0  0  0  0  0  0  0  0
   -0.3607    1.3868   -0.0789 C   0  0  0  0  0  0  0  0  0  0  0  0
    1.2759   -0.3834   -0.0936 C   0  0  0  0  0  0  0  0  0  0  0  0
   -1.6854    1.8182   -0.0514 C   0  0  0  0  0  0  0  0  0  0  0  0
   -2.7205    0.8981    0.0212 C   0  0  0  0  0  0  0  0  0  0  0  0
    2.4505    0.5220   -0.0591 C   0  0  0  0  0  0  0  0  0  0  0  0
   -0.9439   -2.2731    0.1607 C   0  0  0  0  0  0  0  0  0  0  0  0
    3.6630    0.0803   -0.3854 C   0  0  0  0  0  0  0  0  0  0  0  0
    0.3847    2.1593   -0.1830 H   0  0  0  0  0  0  0  0  0  0  0  0
   -1.9099    2.8763   -0.1007 H   0  0  0  0  0  0  0  0  0  0  0  0
   -3.2778   -1.1495    0.1356 H   0  0  0  0  0  0  0  0  0  0  0  0
   -3.7474    1.2403    0.0365 H   0  0  0  0  0  0  0  0  0  0  0  0
    1.5326   -1.4259   -0.1796 H   0  0  0  0  0  0  0  0  0  0  0  0
    2.3688    1.5449    0.2775 H   0  0  0  0  0  0  0  0  0  0  0  0
   -1.7975   -2.9386    0.2267 H   0  0  0  0  0  0  0  0  0  0  0  0
    0.0104   -2.7689    0.2083 H   0  0  0  0  0  0  0  0  0  0  0  0
    4.5144    0.7466   -0.3315 H   0  0  0  0  0  0  0  0  0  0  0  0
    3.8219   -0.9402   -0.7114 H   0  0  0  0  0  0  0  0  0  0  0  0
  1  4  1  0
  1  2  1  0
  1  5  2  3
  2  9  2  3
  2  3  1  0
  3  7  2  0
  3 13  1  0
  4  6  2  0
  4 11  1  0
  5 15  1  0
  5  8  1  0
  6  7  1  0
  6 12  1  0
  7 14  1  0
  8 10  2  3
  8 16  1  0
  9 17  1  0
  9 18  1  0
 10 20  1  0
 10 19  1  0
M  END
