
     RDKit          3D

 19 19  0  0  0  0  0  0  0  0999 V2000
    2.5070   -0.1102    0.0856 O   0  0  0  0  0  0  0  0  0  0  0  0
    3.1408   -1.2516    0.2593 O   0  0  0  0  0  0  0  0  0  0  0  0
   -1.0067   -1.1858   -0.4208 C   0  0  0  0  0  0  0  0  0  0  0  0
    0.4073   -0.9180   -0.7190 C   0  0  0  0  0  0  0  0  0  0  0  0
   -1.8156   -0.1451    0.2505 C   0  0  0  0  0  0  0  0  0  0  0  0
    1.1160    0.0438    0.1436 C   0  0  0  0  0  0  0  0  0  0  0  0
   -1.6215    1.2308   -0.2403 C   0  0  0  0  0  0  0  0  0  0  0  0
    0.8257    1.3480    0.2168 C   0  0  0  0  0  0  0  0  0  0  0  0
   -0.4995    1.9288   -0.0460 C   0  0  0  0  0  0  0  0  0  0  0  0
   -1.0896   -2.1187    0.1937 H   0  0  0  0  0  0  0  0  0  0  0  0
   -1.5334   -1.4447   -1.3757 H   0  0  0  0  0  0  0  0  0  0  0  0
   -1.6478   -0.2286    1.3543 H   0  0  0  0  0  0  0  0  0  0  0  0
   -2.8916   -0.3920    0.0973 H   0  0  0  0  0  0  0  0  0  0  0  0
    0.5101   -0.6128   -1.7922 H   0  0  0  0  0  0  0  0  0  0  0  0
    0.9713   -1.8847   -0.6611 H   0  0  0  0  0  0  0  0  0  0  0  0
   -2.4604    1.8006   -0.6181 H   0  0  0  0  0  0  0  0  0  0  0  0
   -0.5715    3.0120   -0.0027 H   0  0  0  0  0  0  0  0  0  0  0  0
    1.6401    2.0390    0.4428 H   0  0  0  0  0  0  0  0  0  0  0  0
    4.0191   -1.1108    0.6693 H   0  0  0  0  0  0  0  0  0  0  0  0
  1  6  1  0
  1  2  1  0
  2 19  1  0
  3  5  1  0
  3 11  1  0
  3  4  1  0
  3 10  1  0
  4  6  1  0
  4 15  1  0
  4 14  1  0
  5 12  1  0
  5  7  1  0
  5 13  1  0
  6  8  2  0
  7 16  1  0
  7  9  2  0
  8 18  1  0
  8  9  1  0
  9 17  1  0
M  END
