
     RDKit          3D

 19 19  0  0  0  0  0  0  0  0999 V2000
   -0.1402    0.2690   -0.1876 C   0  0  0  0  0  0  0  0  0  0  0  0
   -0.7432    1.6538   -0.4000 C   0  0  0  0  0  0  0  0  0  0  0  0
    0.3284    1.1342   -1.3501 C   0  0  0  0  0  0  0  0  0  0  0  0
    0.8178    0.1250    1.0067 C   0  0  0  0  0  0  0  0  0  0  0  0
    1.8537   -0.9667    0.7547 C   0  0  0  0  0  0  0  0  0  0  0  0
   -1.0407   -0.8826   -0.5472 C   0  0  0  0  0  0  0  0  0  0  0  0
   -2.1462   -1.1447    0.1542 C   0  0  0  0  0  0  0  0  0  0  0  0
    0.2298   -0.1326    1.9135 H   0  0  0  0  0  0  0  0  0  0  0  0
    1.3518    1.0793    1.2103 H   0  0  0  0  0  0  0  0  0  0  0  0
   -0.3817    2.4578    0.2760 H   0  0  0  0  0  0  0  0  0  0  0  0
   -1.7562    1.6835   -0.8563 H   0  0  0  0  0  0  0  0  0  0  0  0
   -0.0628    0.8533   -2.3516 H   0  0  0  0  0  0  0  0  0  0  0  0
    1.3166    1.6251   -1.2201 H   0  0  0  0  0  0  0  0  0  0  0  0
    2.5400   -1.0359    1.6249 H   0  0  0  0  0  0  0  0  0  0  0  0
    2.4506   -0.7289   -0.1514 H   0  0  0  0  0  0  0  0  0  0  0  0
    1.3558   -1.9502    0.6184 H   0  0  0  0  0  0  0  0  0  0  0  0
   -0.7696   -1.5278   -1.3774 H   0  0  0  0  0  0  0  0  0  0  0  0
   -2.4309   -0.5233    0.9980 H   0  0  0  0  0  0  0  0  0  0  0  0
   -2.7732   -1.9883   -0.1150 H   0  0  0  0  0  0  0  0  0  0  0  0
  1  4  1  0
  1  2  1  0
  1  6  1  0
  1  3  1  0
  2 10  1  0
  2 11  1  0
  2  3  1  0
  3 12  1  0
  3 13  1  0
  4  8  1  0
  4  9  1  0
  4  5  1  0
  5 14  1  0
  5 15  1  0
  5 16  1  0
  6  7  2  3
  6 17  1  0
  7 18  1  0
  7 19  1  0
M  END
