
     RDKit          3D

 22 22  0  0  0  0  0  0  0  0999 V2000
   -0.2675    0.2899   -0.1236 C   0  0  0  0  0  0  0  0  0  0  0  0
   -3.0817   -0.2983   -0.2968 C   0  0  0  0  0  0  0  0  0  0  0  0
   -1.2285    1.2738   -0.7228 C   0  0  0  0  0  0  0  0  0  0  0  0
   -0.9770   -0.3508    1.0200 C   0  0  0  0  0  0  0  0  0  0  0  0
    0.9903    0.9679    0.3093 C   0  0  0  0  0  0  0  0  0  0  0  0
   -2.4043    0.7703   -1.1015 C   0  0  0  0  0  0  0  0  0  0  0  0
   -2.2697   -0.6445    0.8998 C   0  0  0  0  0  0  0  0  0  0  0  0
    2.0186    0.1482    0.5353 C   0  0  0  0  0  0  0  0  0  0  0  0
    2.8094   -0.4131   -0.5468 C   0  0  0  0  0  0  0  0  0  0  0  0
    4.0456   -0.8032   -0.2333 C   0  0  0  0  0  0  0  0  0  0  0  0
   -0.0101   -0.5184   -0.8474 H   0  0  0  0  0  0  0  0  0  0  0  0
   -3.2082   -1.1458   -0.9945 H   0  0  0  0  0  0  0  0  0  0  0  0
   -4.0439    0.1104    0.0563 H   0  0  0  0  0  0  0  0  0  0  0  0
   -1.0609    2.3543   -0.6621 H   0  0  0  0  0  0  0  0  0  0  0  0
   -0.3959   -1.0788    1.5955 H   0  0  0  0  0  0  0  0  0  0  0  0
    1.2667    1.9136   -0.1620 H   0  0  0  0  0  0  0  0  0  0  0  0
   -2.9571    1.3064   -1.8506 H   0  0  0  0  0  0  0  0  0  0  0  0
   -2.7595   -1.1091    1.7560 H   0  0  0  0  0  0  0  0  0  0  0  0
    2.5159   -0.4133   -1.5791 H   0  0  0  0  0  0  0  0  0  0  0  0
    1.9726   -0.4253    1.4412 H   0  0  0  0  0  0  0  0  0  0  0  0
    4.1933   -1.8337    0.0063 H   0  0  0  0  0  0  0  0  0  0  0  0
    4.8523   -0.1004   -0.3076 H   0  0  0  0  0  0  0  0  0  0  0  0
  1  4  1  0
  1 11  1  0
  1  3  1  0
  1  5  1  0
  2  6  1  0
  2 12  1  0
  2  7  1  0
  2 13  1  0
  3  6  2  0
  3 14  1  0
  4 15  1  0
  4  7  2  0
  5  8  2  3
  5 16  1  0
  6 17  1  0
  7 18  1  0
  8 20  1  0
  8  9  1  0
  9 10  2  3
  9 19  1  0
 10 21  1  0
 10 22  1  0
M  END
