
     RDKit          3D

 21 21  0  0  0  0  0  0  0  0999 V2000
    3.6870   -0.5421    0.1306 O   0  0  0  0  0  0  0  0  0  0  0  0
   -4.5854   -0.0361    0.7555 O   0  0  0  0  0  0  0  0  0  0  0  0
    2.4378   -0.8269   -0.4529 C   0  0  0  0  0  0  0  0  0  0  0  0
    1.2822   -0.4793    0.4880 C   0  0  0  0  0  0  0  0  0  0  0  0
    0.0028   -0.2264   -0.3141 C   0  0  0  0  0  0  0  0  0  0  0  0
   -1.1742    0.0994    0.6129 C   0  0  0  0  0  0  0  0  0  0  0  0
   -2.4528    0.3528   -0.1907 C   0  0  0  0  0  0  0  0  0  0  0  0
    3.2768    0.2973   -0.9257 C   0  0  0  0  0  0  0  0  0  0  0  0
   -3.5933    0.6745    0.7276 C   0  0  0  0  0  0  0  0  0  0  0  0
    2.4506   -1.7750   -1.0309 H   0  0  0  0  0  0  0  0  0  0  0  0
   -1.3413   -0.7521    1.3095 H   0  0  0  0  0  0  0  0  0  0  0  0
   -0.9305    1.0046    1.2125 H   0  0  0  0  0  0  0  0  0  0  0  0
   -0.2395   -1.1318   -0.9139 H   0  0  0  0  0  0  0  0  0  0  0  0
    0.1699    0.6247   -1.0108 H   0  0  0  0  0  0  0  0  0  0  0  0
    1.5217    0.4163    1.1044 H   0  0  0  0  0  0  0  0  0  0  0  0
    1.1250   -1.3367    1.1772 H   0  0  0  0  0  0  0  0  0  0  0  0
   -2.6981   -0.5468   -0.7977 H   0  0  0  0  0  0  0  0  0  0  0  0
   -2.3011    1.2110   -0.8802 H   0  0  0  0  0  0  0  0  0  0  0  0
    3.0310    1.3166   -0.5599 H   0  0  0  0  0  0  0  0  0  0  0  0
    3.8722    0.1093   -1.8430 H   0  0  0  0  0  0  0  0  0  0  0  0
   -3.5408    1.5467    1.3714 H   0  0  0  0  0  0  0  0  0  0  0  0
  1  3  1  0
  1  8  1  0
  2  9  2  0
  3 10  1  0
  3  8  1  0
  3  4  1  0
  4 16  1  0
  4 15  1  0
  4  5  1  0
  5 14  1  0
  5 13  1  0
  5  6  1  0
  6  7  1  0
  6 11  1  0
  6 12  1  0
  7 17  1  0
  7  9  1  0
  7 18  1  0
  8 20  1  0
  8 19  1  0
  9 21  1  0
M  END
