
     RDKit          3D

 19 20  0  0  0  0  0  0  0  0999 V2000
    0.2090   -1.1629    0.0485 C   0  0  0  0  0  0  0  0  0  0  0  0
   -0.1337    0.9743    0.6261 C   0  0  0  0  0  0  0  0  0  0  0  0
    0.0371   -0.3681    1.3400 C   0  0  0  0  0  0  0  0  0  0  0  0
    1.3876   -0.4282   -0.5433 C   0  0  0  0  0  0  0  0  0  0  0  0
    0.9945    1.0322   -0.3494 C   0  0  0  0  0  0  0  0  0  0  0  0
   -1.0493   -0.7728   -0.6859 C   0  0  0  0  0  0  0  0  0  0  0  0
   -1.3922    0.6169   -0.1525 C   0  0  0  0  0  0  0  0  0  0  0  0
    0.3515   -2.2247    0.1938 H   0  0  0  0  0  0  0  0  0  0  0  0
   -0.2427    1.8148    1.2956 H   0  0  0  0  0  0  0  0  0  0  0  0
    1.8434    1.6569   -0.0516 H   0  0  0  0  0  0  0  0  0  0  0  0
    0.5926    1.4636   -1.3005 H   0  0  0  0  0  0  0  0  0  0  0  0
    1.4865   -0.6146   -1.6195 H   0  0  0  0  0  0  0  0  0  0  0  0
    2.2921   -0.6314    0.0481 H   0  0  0  0  0  0  0  0  0  0  0  0
   -0.8259   -0.6913   -1.7768 H   0  0  0  0  0  0  0  0  0  0  0  0
   -1.8816   -1.4894   -0.5152 H   0  0  0  0  0  0  0  0  0  0  0  0
   -1.5363    1.3419   -0.9582 H   0  0  0  0  0  0  0  0  0  0  0  0
    0.9547   -0.4131    1.9379 H   0  0  0  0  0  0  0  0  0  0  0  0
   -0.8822   -0.6496    1.8849 H   0  0  0  0  0  0  0  0  0  0  0  0
   -2.2051    0.5456    0.5779 H   0  0  0  0  0  0  0  0  0  0  0  0
  1  3  1  0
  1  8  1  0
  1  4  1  0
  1  6  1  0
  2  3  1  0
  2  5  1  0
  2  7  1  0
  2  9  1  0
  3 18  1  0
  3 17  1  0
  4 12  1  0
  4  5  1  0
  4 13  1  0
  5 10  1  0
  5 11  1  0
  6 15  1  0
  6  7  1  0
  6 14  1  0
  7 19  1  0
  7 16  1  0
M  END
