
     RDKit          3D

 20 22  0  0  0  0  0  0  0  0999 V2000
   -1.4765   -0.7291    0.4926 C   0  0  0  0  0  0  0  0  0  0  0  0
   -2.1000    0.5304    0.0090 C   0  0  0  0  0  0  0  0  0  0  0  0
   -2.4495   -0.7618   -0.6208 C   0  0  0  0  0  0  0  0  0  0  0  0
    2.2955   -0.7920   -0.2470 C   0  0  0  0  0  0  0  0  0  0  0  0
   -0.0369   -0.5149    0.2209 C   0  0  0  0  0  0  0  0  0  0  0  0
    0.1504    0.8614   -0.2609 C   0  0  0  0  0  0  0  0  0  0  0  0
   -1.0291    1.3868   -0.5356 C   0  0  0  0  0  0  0  0  0  0  0  0
    1.0547   -1.2456    0.4532 C   0  0  0  0  0  0  0  0  0  0  0  0
    2.5114    0.6142    0.2215 C   0  0  0  0  0  0  0  0  0  0  0  0
    1.4745    1.4327    0.0295 C   0  0  0  0  0  0  0  0  0  0  0  0
   -2.8948    1.0450    0.5686 H   0  0  0  0  0  0  0  0  0  0  0  0
   -1.7647   -1.0485    1.5021 H   0  0  0  0  0  0  0  0  0  0  0  0
   -2.1423   -0.9918   -1.6617 H   0  0  0  0  0  0  0  0  0  0  0  0
   -3.4409   -1.1965   -0.3512 H   0  0  0  0  0  0  0  0  0  0  0  0
    3.1558   -1.4409   -0.0747 H   0  0  0  0  0  0  0  0  0  0  0  0
    2.0134   -0.6867   -1.3236 H   0  0  0  0  0  0  0  0  0  0  0  0
   -1.1323    2.4439   -0.7531 H   0  0  0  0  0  0  0  0  0  0  0  0
    1.0113   -2.1694    1.0262 H   0  0  0  0  0  0  0  0  0  0  0  0
    3.1991    0.7789    1.0523 H   0  0  0  0  0  0  0  0  0  0  0  0
    1.6010    2.4839    0.2529 H   0  0  0  0  0  0  0  0  0  0  0  0
  1  5  1  0
  1  2  1  0
  1 12  1  0
  1  3  1  0
  2  7  1  0
  2 11  1  0
  2  3  1  0
  3 13  1  0
  3 14  1  0
  4 16  1  0
  4  9  1  0
  4 15  1  0
  4  8  1  0
  5  8  2  0
  5  6  1  0
  6  7  2  0
  6 10  1  0
  7 17  1  0
  8 18  1  0
  9 19  1  0
  9 10  2  0
 10 20  1  0
M  END
