
     RDKit          3D

 20 22  0  0  0  0  0  0  0  0999 V2000
    1.9180    0.5566   -0.3549 C   0  0  0  0  0  0  0  0  0  0  0  0
    1.3247   -0.7634   -0.6553 C   0  0  0  0  0  0  0  0  0  0  0  0
    2.4109   -0.6669    0.3348 C   0  0  0  0  0  0  0  0  0  0  0  0
    0.9149    1.3832    0.3938 C   0  0  0  0  0  0  0  0  0  0  0  0
   -0.1021   -0.6368   -0.2603 C   0  0  0  0  0  0  0  0  0  0  0  0
   -0.2955    0.5094    0.4917 C   0  0  0  0  0  0  0  0  0  0  0  0
   -1.2289   -1.2013   -0.8455 C   0  0  0  0  0  0  0  0  0  0  0  0
   -1.5890    0.9335    0.7694 C   0  0  0  0  0  0  0  0  0  0  0  0
   -2.5010   -0.8481   -0.4498 C   0  0  0  0  0  0  0  0  0  0  0  0
   -2.7035    0.1534    0.4902 C   0  0  0  0  0  0  0  0  0  0  0  0
    2.5144    1.0535   -1.1461 H   0  0  0  0  0  0  0  0  0  0  0  0
    1.5467   -1.2528   -1.6372 H   0  0  0  0  0  0  0  0  0  0  0  0
    2.2312   -0.7223    1.4309 H   0  0  0  0  0  0  0  0  0  0  0  0
    3.3913   -1.1037    0.0238 H   0  0  0  0  0  0  0  0  0  0  0  0
    0.6628    2.3321   -0.0985 H   0  0  0  0  0  0  0  0  0  0  0  0
    1.2352    1.5628    1.4492 H   0  0  0  0  0  0  0  0  0  0  0  0
   -1.1636   -1.8053   -1.7453 H   0  0  0  0  0  0  0  0  0  0  0  0
   -3.4477    0.0045    1.2772 H   0  0  0  0  0  0  0  0  0  0  0  0
   -1.7177    1.8372    1.3600 H   0  0  0  0  0  0  0  0  0  0  0  0
   -3.4010   -1.3257   -0.8283 H   0  0  0  0  0  0  0  0  0  0  0  0
  1 11  1  0
  1  4  1  0
  1  3  1  0
  1  2  1  0
  2 12  1  0
  2  5  1  0
  2  3  1  0
  3 14  1  0
  3 13  1  0
  4 15  1  0
  4 16  1  0
  4  6  1  0
  5  6  2  0
  5  7  1  0
  6  8  1  0
  7 17  1  0
  7  9  2  0
  8 10  2  0
  8 19  1  0
  9 20  1  0
  9 10  1  0
 10 18  1  0
M  END
