
     RDKit          3D

 23 23  0  0  0  0  0  0  0  0999 V2000
    2.3347   -0.2963   -1.1581 O   0  0  0  0  0  0  0  0  0  0  0  0
   -2.6789    1.6360    0.8619 O   0  0  0  0  0  0  0  0  0  0  0  0
    3.1458    0.6872   -0.8059 O   0  0  0  0  0  0  0  0  0  0  0  0
    4.1432    0.0939   -0.1809 O   0  0  0  0  0  0  0  0  0  0  0  0
    0.3654   -1.4431   -0.4357 C   0  0  0  0  0  0  0  0  0  0  0  0
   -0.6877   -1.5253    0.6791 C   0  0  0  0  0  0  0  0  0  0  0  0
    1.1315   -0.1086   -0.4466 C   0  0  0  0  0  0  0  0  0  0  0  0
   -1.8810   -0.5824    0.4681 C   0  0  0  0  0  0  0  0  0  0  0  0
   -1.5077    0.9029    0.6118 C   0  0  0  0  0  0  0  0  0  0  0  0
    0.3163    0.9729   -1.1202 C   0  0  0  0  0  0  0  0  0  0  0  0
   -0.8567    1.4234   -0.6486 C   0  0  0  0  0  0  0  0  0  0  0  0
   -1.0758   -2.5668    0.7065 H   0  0  0  0  0  0  0  0  0  0  0  0
   -0.2160   -1.3315    1.6675 H   0  0  0  0  0  0  0  0  0  0  0  0
    1.0943   -2.2651   -0.2613 H   0  0  0  0  0  0  0  0  0  0  0  0
   -0.1064   -1.6325   -1.4256 H   0  0  0  0  0  0  0  0  0  0  0  0
    1.3526    0.1877    0.6067 H   0  0  0  0  0  0  0  0  0  0  0  0
   -2.6394   -0.8314    1.2428 H   0  0  0  0  0  0  0  0  0  0  0  0
   -2.3524   -0.7738   -0.5216 H   0  0  0  0  0  0  0  0  0  0  0  0
   -0.8104    1.0300    1.4729 H   0  0  0  0  0  0  0  0  0  0  0  0
    0.7022    1.4178   -2.0336 H   0  0  0  0  0  0  0  0  0  0  0  0
   -1.3603    2.2103   -1.2037 H   0  0  0  0  0  0  0  0  0  0  0  0
   -2.3961    2.5207    1.2142 H   0  0  0  0  0  0  0  0  0  0  0  0
    3.9829    0.2741    0.7806 H   0  0  0  0  0  0  0  0  0  0  0  0
  1  7  1  0
  1  3  1  0
  2  9  1  0
  2 22  1  0
  3  4  1  0
  4 23  1  0
  5 14  1  0
  5  7  1  0
  5  6  1  0
  5 15  1  0
  6 13  1  0
  6 12  1  0
  6  8  1  0
  7 10  1  0
  7 16  1  0
  8 18  1  0
  8 17  1  0
  8  9  1  0
  9 11  1  0
  9 19  1  0
 10 11  2  0
 10 20  1  0
 11 21  1  0
M  END
