
     RDKit          3D

 19 19  0  0  0  0  0  0  0  0999 V2000
   -1.0138    0.1481   -0.4578 C   0  0  0  0  0  0  0  0  0  0  0  0
   -0.2618    0.9682    0.5533 C   0  0  0  0  0  0  0  0  0  0  0  0
    1.1850    1.1784    0.1951 C   0  0  0  0  0  0  0  0  0  0  0  0
    1.8647   -0.1843    0.2595 C   0  0  0  0  0  0  0  0  0  0  0  0
   -2.1230   -0.5695    0.3024 C   0  0  0  0  0  0  0  0  0  0  0  0
   -0.1247   -0.8775   -1.0536 C   0  0  0  0  0  0  0  0  0  0  0  0
    1.1091   -1.1263   -0.6137 C   0  0  0  0  0  0  0  0  0  0  0  0
   -1.4497    0.7715   -1.2611 H   0  0  0  0  0  0  0  0  0  0  0  0
   -0.8087    1.9039    0.7426 H   0  0  0  0  0  0  0  0  0  0  0  0
   -0.2481    0.3652    1.4973 H   0  0  0  0  0  0  0  0  0  0  0  0
    1.3448    1.6120   -0.7999 H   0  0  0  0  0  0  0  0  0  0  0  0
    1.6058    1.8357    0.9956 H   0  0  0  0  0  0  0  0  0  0  0  0
    2.9049   -0.0159   -0.0934 H   0  0  0  0  0  0  0  0  0  0  0  0
    1.9089   -0.5709    1.2930 H   0  0  0  0  0  0  0  0  0  0  0  0
   -1.6747   -0.8514    1.2782 H   0  0  0  0  0  0  0  0  0  0  0  0
   -2.4411   -1.4882   -0.2108 H   0  0  0  0  0  0  0  0  0  0  0  0
   -2.9452    0.1260    0.5235 H   0  0  0  0  0  0  0  0  0  0  0  0
   -0.5397   -1.4562   -1.8846 H   0  0  0  0  0  0  0  0  0  0  0  0
    1.7074   -1.7689   -1.2655 H   0  0  0  0  0  0  0  0  0  0  0  0
  1  2  1  0
  1  8  1  0
  1  6  1  0
  1  5  1  0
  2  3  1  0
  2  9  1  0
  2 10  1  0
  3 11  1  0
  3  4  1  0
  3 12  1  0
  4 13  1  0
  4 14  1  0
  4  7  1  0
  5 16  1  0
  5 17  1  0
  5 15  1  0
  6 18  1  0
  6  7  2  0
  7 19  1  0
M  END
