
     RDKit          3D

 20 21  0  0  0  0  0  0  0  0999 V2000
   -0.7103   -0.8302   -0.7999 C   0  0  0  0  0  0  0  0  0  0  0  0
    2.5995    0.4506    0.2852 C   0  0  0  0  0  0  0  0  0  0  0  0
    0.2540    0.2630   -0.4792 C   0  0  0  0  0  0  0  0  0  0  0  0
    1.3921   -0.3237   -0.1433 C   0  0  0  0  0  0  0  0  0  0  0  0
   -2.0660   -0.4703   -0.2865 C   0  0  0  0  0  0  0  0  0  0  0  0
   -0.1402   -1.9538   -0.0033 C   0  0  0  0  0  0  0  0  0  0  0  0
    1.1552   -1.7253    0.2268 C   0  0  0  0  0  0  0  0  0  0  0  0
   -0.2919    1.6246   -0.4066 C   0  0  0  0  0  0  0  0  0  0  0  0
   -2.2813    0.6498    0.3908 C   0  0  0  0  0  0  0  0  0  0  0  0
   -1.5349    1.8600    0.0226 C   0  0  0  0  0  0  0  0  0  0  0  0
   -0.7447   -1.0716   -1.8709 H   0  0  0  0  0  0  0  0  0  0  0  0
    2.2313    1.1340    1.0910 H   0  0  0  0  0  0  0  0  0  0  0  0
    2.9664    1.0726   -0.5464 H   0  0  0  0  0  0  0  0  0  0  0  0
    3.3650   -0.1854    0.7511 H   0  0  0  0  0  0  0  0  0  0  0  0
   -2.8815   -1.1341   -0.5756 H   0  0  0  0  0  0  0  0  0  0  0  0
   -0.6361   -2.9100    0.0764 H   0  0  0  0  0  0  0  0  0  0  0  0
   -3.0233    0.6160    1.1611 H   0  0  0  0  0  0  0  0  0  0  0  0
   -1.7508    2.7772    0.5737 H   0  0  0  0  0  0  0  0  0  0  0  0
    0.4289    2.4407   -0.4797 H   0  0  0  0  0  0  0  0  0  0  0  0
    1.6684   -2.2842    1.0127 H   0  0  0  0  0  0  0  0  0  0  0  0
  1  3  1  0
  1  6  1  0
  1 11  1  0
  1  5  1  0
  2 12  1  0
  2  4  1  0
  2 14  1  0
  2 13  1  0
  3  4  2  0
  3  8  1  0
  4  7  1  0
  5 15  1  0
  5  9  2  0
  6 16  1  0
  6  7  2  0
  7 20  1  0
  8 19  1  0
  8 10  2  0
  9 17  1  0
  9 10  1  0
 10 18  1  0
M  END
