
     RDKit          3D

 20 21  0  0  0  0  0  0  0  0999 V2000
   -0.7768   -0.8304   -0.7524 C   0  0  0  0  0  0  0  0  0  0  0  0
    2.5459    0.4492    0.5065 C   0  0  0  0  0  0  0  0  0  0  0  0
    0.2418    0.2298   -0.4816 C   0  0  0  0  0  0  0  0  0  0  0  0
    1.3665   -0.3059   -0.0219 C   0  0  0  0  0  0  0  0  0  0  0  0
   -2.0659   -0.5152   -0.0349 C   0  0  0  0  0  0  0  0  0  0  0  0
   -0.0713   -2.0464   -0.2454 C   0  0  0  0  0  0  0  0  0  0  0  0
    1.1696   -1.7429    0.1115 C   0  0  0  0  0  0  0  0  0  0  0  0
   -0.1698    1.6308   -0.3146 C   0  0  0  0  0  0  0  0  0  0  0  0
   -2.3994    0.7579    0.2428 C   0  0  0  0  0  0  0  0  0  0  0  0
   -1.4442    1.8746    0.0165 C   0  0  0  0  0  0  0  0  0  0  0  0
   -0.9645   -0.9246   -1.8434 H   0  0  0  0  0  0  0  0  0  0  0  0
    2.2296    1.1098    1.3409 H   0  0  0  0  0  0  0  0  0  0  0  0
    2.9877    1.0656   -0.3041 H   0  0  0  0  0  0  0  0  0  0  0  0
    3.3177   -0.2553    0.8816 H   0  0  0  0  0  0  0  0  0  0  0  0
   -2.7853   -1.3055    0.1398 H   0  0  0  0  0  0  0  0  0  0  0  0
   -0.4834   -3.0469   -0.2261 H   0  0  0  0  0  0  0  0  0  0  0  0
   -3.3716    0.9750    0.6660 H   0  0  0  0  0  0  0  0  0  0  0  0
   -1.7667    2.8924    0.1936 H   0  0  0  0  0  0  0  0  0  0  0  0
    0.5493    2.4379   -0.3749 H   0  0  0  0  0  0  0  0  0  0  0  0
    1.8908   -2.4499    0.5000 H   0  0  0  0  0  0  0  0  0  0  0  0
  1  3  1  0
  1  6  1  0
  1 11  1  0
  1  5  1  0
  2 12  1  0
  2  4  1  0
  2 14  1  0
  2 13  1  0
  3  4  2  0
  3  8  1  0
  4  7  1  0
  5 15  1  0
  5  9  2  0
  6 16  1  0
  6  7  2  0
  7 20  1  0
  8 19  1  0
  8 10  2  0
  9 17  1  0
  9 10  1  0
 10 18  1  0
M  END
