
     RDKit          3D

 17 17  0  0  0  0  0  0  0  0999 V2000
   -0.3949   -1.0645    0.3109 C   0  0  0  0  0  0  0  0  0  0  0  0
   -1.0856    1.2571   -0.1705 C   0  0  0  0  0  0  0  0  0  0  0  0
    2.4724   -0.3145   -0.2363 C   0  0  0  0  0  0  0  0  0  0  0  0
    0.0632    0.3058   -0.0829 C   0  0  0  0  0  0  0  0  0  0  0  0
    1.3354    0.6589   -0.3307 C   0  0  0  0  0  0  0  0  0  0  0  0
   -1.8652   -0.8675    0.4490 C   0  0  0  0  0  0  0  0  0  0  0  0
   -2.2372    0.3829    0.1897 C   0  0  0  0  0  0  0  0  0  0  0  0
   -0.1757   -1.8051   -0.4870 H   0  0  0  0  0  0  0  0  0  0  0  0
    0.0485   -1.3717    1.2816 H   0  0  0  0  0  0  0  0  0  0  0  0
   -1.2011    1.6492   -1.2032 H   0  0  0  0  0  0  0  0  0  0  0  0
   -0.9770    2.0825    0.5648 H   0  0  0  0  0  0  0  0  0  0  0  0
    2.5422   -0.7194    0.7952 H   0  0  0  0  0  0  0  0  0  0  0  0
    2.3205   -1.1480   -0.9540 H   0  0  0  0  0  0  0  0  0  0  0  0
    3.4252    0.1988   -0.4829 H   0  0  0  0  0  0  0  0  0  0  0  0
   -2.5603   -1.6520    0.7294 H   0  0  0  0  0  0  0  0  0  0  0  0
   -3.2667    0.7222    0.2371 H   0  0  0  0  0  0  0  0  0  0  0  0
    1.5562    1.6853   -0.6103 H   0  0  0  0  0  0  0  0  0  0  0  0
  1  8  1  0
  1  6  1  0
  1  9  1  0
  1  4  1  0
  2  7  1  0
  2 10  1  0
  2 11  1  0
  2  4  1  0
  3 12  1  0
  3 13  1  0
  3  5  1  0
  3 14  1  0
  4  5  2  3
  5 17  1  0
  6  7  2  0
  6 15  1  0
  7 16  1  0
M  END
