
     RDKit          3D

 17 18  0  0  0  0  0  0  0  0999 V2000
    0.1510    0.8947   -0.4738 C   0  0  0  0  0  0  0  0  0  0  0  0
   -1.2744    0.4157   -0.3899 C   0  0  0  0  0  0  0  0  0  0  0  0
    0.4717    0.7350    1.0179 C   0  0  0  0  0  0  0  0  0  0  0  0
   -1.1715   -0.7846    0.5480 C   0  0  0  0  0  0  0  0  0  0  0  0
    1.1052   -0.1333   -1.0232 C   0  0  0  0  0  0  0  0  0  0  0  0
    0.2886   -0.7676    0.9382 C   0  0  0  0  0  0  0  0  0  0  0  0
    1.3447   -1.0539    0.1441 C   0  0  0  0  0  0  0  0  0  0  0  0
    0.2845    1.9029   -0.8403 H   0  0  0  0  0  0  0  0  0  0  0  0
   -1.7355    0.1812   -1.3491 H   0  0  0  0  0  0  0  0  0  0  0  0
   -1.8222    1.1919    0.2013 H   0  0  0  0  0  0  0  0  0  0  0  0
   -1.8160   -0.6740    1.4408 H   0  0  0  0  0  0  0  0  0  0  0  0
   -1.4598   -1.7130    0.0372 H   0  0  0  0  0  0  0  0  0  0  0  0
   -0.3012    1.2057    1.6338 H   0  0  0  0  0  0  0  0  0  0  0  0
    1.5026    1.0079    1.2499 H   0  0  0  0  0  0  0  0  0  0  0  0
    2.0522    0.3787   -1.2411 H   0  0  0  0  0  0  0  0  0  0  0  0
    0.7083   -0.6995   -1.8801 H   0  0  0  0  0  0  0  0  0  0  0  0
    1.6718   -2.0878   -0.0138 H   0  0  0  0  0  0  0  0  0  0  0  0
  1  8  1  0
  1  5  1  0
  1  3  1  0
  1  2  1  0
  2  4  1  0
  2 10  1  0
  2  9  1  0
  3 13  1  0
  3  6  1  0
  3 14  1  0
  4 12  1  0
  4  6  1  0
  4 11  1  0
  5 16  1  0
  5 15  1  0
  5  7  1  0
  6  7  2  0
  7 17  1  0
M  END
