
     RDKit          3D

 17 17  0  0  0  0  0  0  0  0999 V2000
   -1.6035   -0.0913   -0.4527 C   0  0  0  0  0  0  0  0  0  0  0  0
   -1.0759   -1.5346   -0.4375 C   0  0  0  0  0  0  0  0  0  0  0  0
    2.0887    0.2718    0.6036 C   0  0  0  0  0  0  0  0  0  0  0  0
   -0.4180    0.7162   -0.0508 C   0  0  0  0  0  0  0  0  0  0  0  0
    0.7166   -0.1615    0.1840 C   0  0  0  0  0  0  0  0  0  0  0  0
    0.3586   -1.4158   -0.0291 C   0  0  0  0  0  0  0  0  0  0  0  0
   -0.4159    2.0432    0.0702 C   0  0  0  0  0  0  0  0  0  0  0  0
   -1.9426    0.1976   -1.4712 H   0  0  0  0  0  0  0  0  0  0  0  0
   -2.4283    0.0386    0.2812 H   0  0  0  0  0  0  0  0  0  0  0  0
   -1.6301   -2.1527    0.3010 H   0  0  0  0  0  0  0  0  0  0  0  0
   -1.1458   -1.9941   -1.4467 H   0  0  0  0  0  0  0  0  0  0  0  0
    2.7680   -0.6005    0.7127 H   0  0  0  0  0  0  0  0  0  0  0  0
    2.0292    0.8005    1.5776 H   0  0  0  0  0  0  0  0  0  0  0  0
    2.5107    0.9582   -0.1598 H   0  0  0  0  0  0  0  0  0  0  0  0
    1.0256   -2.2618    0.0790 H   0  0  0  0  0  0  0  0  0  0  0  0
    0.4786    2.5751    0.3664 H   0  0  0  0  0  0  0  0  0  0  0  0
   -1.3160    2.6110   -0.1278 H   0  0  0  0  0  0  0  0  0  0  0  0
  1  8  1  0
  1  2  1  0
  1  9  1  0
  1  4  1  0
  2  6  1  0
  2 11  1  0
  2 10  1  0
  3  5  1  0
  3 13  1  0
  3 12  1  0
  3 14  1  0
  4  7  2  3
  4  5  1  0
  5  6  2  0
  6 15  1  0
  7 16  1  0
  7 17  1  0
M  END
