
     RDKit          3D

 21 21  0  0  0  0  0  0  0  0999 V2000
    2.3159    0.2616   -0.8271 O   0  0  0  0  0  0  0  0  0  0  0  0
    3.3797    0.6044   -0.1518 O   0  0  0  0  0  0  0  0  0  0  0  0
    1.1680    0.1892   -0.0149 C   0  0  0  0  0  0  0  0  0  0  0  0
    0.5467   -1.1214   -0.2663 C   0  0  0  0  0  0  0  0  0  0  0  0
   -0.8232   -1.3452    0.2720 C   0  0  0  0  0  0  0  0  0  0  0  0
    0.3986    1.4179   -0.2595 C   0  0  0  0  0  0  0  0  0  0  0  0
   -1.8702   -0.7265   -0.6198 C   0  0  0  0  0  0  0  0  0  0  0  0
   -1.9914    0.6927   -0.2070 C   0  0  0  0  0  0  0  0  0  0  0  0
   -0.9835    1.4652    0.2237 C   0  0  0  0  0  0  0  0  0  0  0  0
    1.5643    0.2001    1.0331 H   0  0  0  0  0  0  0  0  0  0  0  0
   -1.0000   -2.4511    0.2570 H   0  0  0  0  0  0  0  0  0  0  0  0
   -0.9865   -1.0120    1.2989 H   0  0  0  0  0  0  0  0  0  0  0  0
    1.1976   -1.8931    0.2231 H   0  0  0  0  0  0  0  0  0  0  0  0
    0.5478   -1.4035   -1.3463 H   0  0  0  0  0  0  0  0  0  0  0  0
   -2.8285   -1.2811   -0.4725 H   0  0  0  0  0  0  0  0  0  0  0  0
   -1.6125   -0.7961   -1.6973 H   0  0  0  0  0  0  0  0  0  0  0  0
    0.9615    2.2530    0.2353 H   0  0  0  0  0  0  0  0  0  0  0  0
    0.4168    1.6990   -1.3441 H   0  0  0  0  0  0  0  0  0  0  0  0
   -2.9368    0.9610    0.2279 H   0  0  0  0  0  0  0  0  0  0  0  0
   -1.3493    2.4899    0.3578 H   0  0  0  0  0  0  0  0  0  0  0  0
    3.8850   -0.2040    0.1399 H   0  0  0  0  0  0  0  0  0  0  0  0
  1  3  1  0
  1  2  1  0
  2 21  1  0
  3 10  1  0
  3  4  1  0
  3  6  1  0
  4  5  1  0
  4 14  1  0
  4 13  1  0
  5  7  1  0
  5 12  1  0
  5 11  1  0
  6 17  1  0
  6 18  1  0
  6  9  1  0
  7 15  1  0
  7 16  1  0
  7  8  1  0
  8 19  1  0
  8  9  2  0
  9 20  1  0
M  END
