
     RDKit          3D

 19 19  0  0  0  0  0  0  0  0999 V2000
   -1.8323    0.5370    0.4625 C   0  0  0  0  0  0  0  0  0  0  0  0
   -1.9439   -0.4590   -0.6927 C   0  0  0  0  0  0  0  0  0  0  0  0
   -0.3505    0.8544    0.6273 C   0  0  0  0  0  0  0  0  0  0  0  0
   -0.5923   -1.1549   -0.8048 C   0  0  0  0  0  0  0  0  0  0  0  0
    2.6277    0.4583    0.6441 C   0  0  0  0  0  0  0  0  0  0  0  0
    0.3481   -0.2592   -0.0780 C   0  0  0  0  0  0  0  0  0  0  0  0
    1.6791   -0.4507   -0.0802 C   0  0  0  0  0  0  0  0  0  0  0  0
   -2.2161    0.0636    1.3933 H   0  0  0  0  0  0  0  0  0  0  0  0
   -2.4208    1.4576    0.2578 H   0  0  0  0  0  0  0  0  0  0  0  0
   -2.7603   -1.1920   -0.5143 H   0  0  0  0  0  0  0  0  0  0  0  0
   -2.1555    0.0939   -1.6347 H   0  0  0  0  0  0  0  0  0  0  0  0
   -0.0997    1.8230    0.1432 H   0  0  0  0  0  0  0  0  0  0  0  0
   -0.0774    0.8814    1.7044 H   0  0  0  0  0  0  0  0  0  0  0  0
   -0.6187   -2.1508   -0.3119 H   0  0  0  0  0  0  0  0  0  0  0  0
   -0.2954   -1.2637   -1.8708 H   0  0  0  0  0  0  0  0  0  0  0  0
    2.5345    1.4941    0.2551 H   0  0  0  0  0  0  0  0  0  0  0  0
    2.4099    0.4476    1.7327 H   0  0  0  0  0  0  0  0  0  0  0  0
    3.6704    0.1115    0.4872 H   0  0  0  0  0  0  0  0  0  0  0  0
    2.0931   -1.2923   -0.6290 H   0  0  0  0  0  0  0  0  0  0  0  0
  1  2  1  0
  1  9  1  0
  1  3  1  0
  1  8  1  0
  2 10  1  0
  2 11  1  0
  2  4  1  0
  3 12  1  0
  3 13  1  0
  3  6  1  0
  4 15  1  0
  4  6  1  0
  4 14  1  0
  5 16  1  0
  5 17  1  0
  5  7  1  0
  5 18  1  0
  6  7  2  3
  7 19  1  0
M  END
