
     RDKit          3D

 20 20  0  0  0  0  0  0  0  0999 V2000
   -0.8001    2.1898   -0.1637 C   0  0  0  0  0  0  0  0  0  0  0  0
   -0.9350    0.7086   -0.2986 C   0  0  0  0  0  0  0  0  0  0  0  0
    0.1874   -0.0441    0.0199 C   0  0  0  0  0  0  0  0  0  0  0  0
   -2.2163    0.1754   -0.2685 C   0  0  0  0  0  0  0  0  0  0  0  0
   -0.0139   -1.3832    0.3142 C   0  0  0  0  0  0  0  0  0  0  0  0
   -1.2679   -1.9538    0.2487 C   0  0  0  0  0  0  0  0  0  0  0  0
   -2.3789   -1.1831   -0.0546 C   0  0  0  0  0  0  0  0  0  0  0  0
    1.4149    0.3730   -0.6681 C   0  0  0  0  0  0  0  0  0  0  0  0
    3.6866   -0.3340    0.4407 C   0  0  0  0  0  0  0  0  0  0  0  0
    2.5282   -0.0085   -0.0889 C   0  0  0  0  0  0  0  0  0  0  0  0
   -1.6468    2.5517    0.4729 H   0  0  0  0  0  0  0  0  0  0  0  0
    0.1689    2.4914    0.2592 H   0  0  0  0  0  0  0  0  0  0  0  0
   -0.9181    2.7083   -1.1319 H   0  0  0  0  0  0  0  0  0  0  0  0
    0.8359   -2.0095    0.5297 H   0  0  0  0  0  0  0  0  0  0  0  0
   -1.4243   -2.8910    0.7834 H   0  0  0  0  0  0  0  0  0  0  0  0
   -3.0929    0.8127   -0.3772 H   0  0  0  0  0  0  0  0  0  0  0  0
   -3.3253   -1.6846   -0.2599 H   0  0  0  0  0  0  0  0  0  0  0  0
    1.5181    0.4363   -1.7296 H   0  0  0  0  0  0  0  0  0  0  0  0
    3.9783    0.4116    1.1827 H   0  0  0  0  0  0  0  0  0  0  0  0
    3.7011   -1.3669    0.7897 H   0  0  0  0  0  0  0  0  0  0  0  0
  1 13  1  0
  1  2  1  0
  1 12  1  0
  1 11  1  0
  2  4  2  0
  2  3  1  0
  3  8  1  0
  3  5  2  0
  4  7  1  0
  4 16  1  0
  5  6  1  0
  5 14  1  0
  6 15  1  0
  6  7  2  0
  7 17  1  0
  8 10  2  3
  8 18  1  0
  9 10  2  3
  9 20  1  0
  9 19  1  0
M  END
