
     RDKit          3D

 21 21  0  0  0  0  0  0  0  0999 V2000
    0.5549   -0.9238   -0.7790 O   0  0  0  0  0  0  0  0  0  0  0  0
    3.4068   -0.3484    0.9617 O   0  0  0  0  0  0  0  0  0  0  0  0
   -1.6030    0.5470   -0.2212 C   0  0  0  0  0  0  0  0  0  0  0  0
   -0.6160    1.3567    0.5856 C   0  0  0  0  0  0  0  0  0  0  0  0
    1.2225   -0.1781    0.2062 C   0  0  0  0  0  0  0  0  0  0  0  0
    0.7824    1.2553   -0.0128 C   0  0  0  0  0  0  0  0  0  0  0  0
   -1.6574   -0.8962    0.2002 C   0  0  0  0  0  0  0  0  0  0  0  0
   -0.4163   -1.6675   -0.1361 C   0  0  0  0  0  0  0  0  0  0  0  0
    2.6790   -0.3605   -0.0118 C   0  0  0  0  0  0  0  0  0  0  0  0
   -2.6204    0.9710   -0.0270 H   0  0  0  0  0  0  0  0  0  0  0  0
   -1.3880    0.7029   -1.2841 H   0  0  0  0  0  0  0  0  0  0  0  0
   -2.4953   -1.3582   -0.3782 H   0  0  0  0  0  0  0  0  0  0  0  0
   -1.8606   -0.9108    1.2864 H   0  0  0  0  0  0  0  0  0  0  0  0
   -0.8867    2.4399    0.5027 H   0  0  0  0  0  0  0  0  0  0  0  0
   -0.6254    1.0987    1.6647 H   0  0  0  0  0  0  0  0  0  0  0  0
    0.9382   -0.5004    1.2299 H   0  0  0  0  0  0  0  0  0  0  0  0
    1.4573    1.9942    0.4348 H   0  0  0  0  0  0  0  0  0  0  0  0
    0.6503    1.4919   -1.0953 H   0  0  0  0  0  0  0  0  0  0  0  0
    0.0511   -2.0586    0.8023 H   0  0  0  0  0  0  0  0  0  0  0  0
   -0.6193   -2.5641   -0.7666 H   0  0  0  0  0  0  0  0  0  0  0  0
    3.0462   -0.0911   -1.0077 H   0  0  0  0  0  0  0  0  0  0  0  0
  1  5  1  0
  1  8  1  0
  2  9  2  0
  3 11  1  0
  3  4  1  0
  3  7  1  0
  3 10  1  0
  4 14  1  0
  4  6  1  0
  4 15  1  0
  5  6  1  0
  5  9  1  0
  5 16  1  0
  6 18  1  0
  6 17  1  0
  7 12  1  0
  7 13  1  0
  7  8  1  0
  8 19  1  0
  8 20  1  0
  9 21  1  0
M  END
