
     RDKit          3D

 22 23  0  0  0  0  0  0  0  0999 V2000
   -0.5774    0.0006   -0.9214 C   0  0  0  0  0  0  0  0  0  0  0  0
   -1.4201   -1.1233   -0.2914 C   0  0  0  0  0  0  0  0  0  0  0  0
   -2.4768   -0.4290    0.5738 C   0  0  0  0  0  0  0  0  0  0  0  0
    1.2515    0.2135    1.0152 C   0  0  0  0  0  0  0  0  0  0  0  0
    0.8416    0.0020   -0.4114 C   0  0  0  0  0  0  0  0  0  0  0  0
   -1.2766    1.2512   -0.5163 C   0  0  0  0  0  0  0  0  0  0  0  0
   -2.2956    1.0186    0.2925 C   0  0  0  0  0  0  0  0  0  0  0  0
    2.7362    0.1044    0.9078 C   0  0  0  0  0  0  0  0  0  0  0  0
    1.9081   -0.1903   -1.1749 C   0  0  0  0  0  0  0  0  0  0  0  0
    3.0958   -0.1254   -0.3442 C   0  0  0  0  0  0  0  0  0  0  0  0
   -0.5969   -0.0857   -2.0307 H   0  0  0  0  0  0  0  0  0  0  0  0
   -0.8130   -1.8283    0.3184 H   0  0  0  0  0  0  0  0  0  0  0  0
   -1.9214   -1.7083   -1.0939 H   0  0  0  0  0  0  0  0  0  0  0  0
   -2.3002   -0.6261    1.6530 H   0  0  0  0  0  0  0  0  0  0  0  0
   -3.5016   -0.7502    0.2888 H   0  0  0  0  0  0  0  0  0  0  0  0
    0.9569    1.2230    1.3717 H   0  0  0  0  0  0  0  0  0  0  0  0
    0.8460   -0.5818    1.6750 H   0  0  0  0  0  0  0  0  0  0  0  0
    3.4294    0.1990    1.7332 H   0  0  0  0  0  0  0  0  0  0  0  0
   -0.9782    2.2465   -0.8299 H   0  0  0  0  0  0  0  0  0  0  0  0
   -2.9165    1.8028    0.7127 H   0  0  0  0  0  0  0  0  0  0  0  0
    1.8934   -0.3684   -2.2424 H   0  0  0  0  0  0  0  0  0  0  0  0
    4.1154   -0.2448   -0.6855 H   0  0  0  0  0  0  0  0  0  0  0  0
  1 11  1  0
  1  5  1  0
  1  6  1  0
  1  2  1  0
  2 12  1  0
  2 13  1  0
  2  3  1  0
  3 15  1  0
  3  7  1  0
  3 14  1  0
  4  8  1  0
  4  5  1  0
  4 16  1  0
  4 17  1  0
  5  9  2  0
  6  7  2  0
  6 19  1  0
  7 20  1  0
  8 18  1  0
  8 10  2  0
  9 21  1  0
  9 10  1  0
 10 22  1  0
M  END
