
     RDKit          3D

 17 17  0  0  0  0  0  0  0  0999 V2000
   -1.6291    0.5107    0.0246 C   0  0  0  0  0  0  0  0  0  0  0  0
   -0.4442    1.4834    0.1593 C   0  0  0  0  0  0  0  0  0  0  0  0
   -1.0698   -0.9148   -0.1257 C   0  0  0  0  0  0  0  0  0  0  0  0
    0.7714    0.6335    0.0877 C   0  0  0  0  0  0  0  0  0  0  0  0
    0.4075   -0.7618   -0.0781 C   0  0  0  0  0  0  0  0  0  0  0  0
    2.0150    1.1107    0.1673 C   0  0  0  0  0  0  0  0  0  0  0  0
    1.2727   -1.7713   -0.1750 C   0  0  0  0  0  0  0  0  0  0  0  0
   -2.2410    0.7760   -0.8653 H   0  0  0  0  0  0  0  0  0  0  0  0
   -2.2776    0.5727    0.9259 H   0  0  0  0  0  0  0  0  0  0  0  0
   -0.4452    2.2207   -0.6728 H   0  0  0  0  0  0  0  0  0  0  0  0
   -0.4821    2.0156    1.1347 H   0  0  0  0  0  0  0  0  0  0  0  0
   -1.3775   -1.3571   -1.0981 H   0  0  0  0  0  0  0  0  0  0  0  0
   -1.4145   -1.5623    0.7096 H   0  0  0  0  0  0  0  0  0  0  0  0
    0.9281   -2.7900   -0.2977 H   0  0  0  0  0  0  0  0  0  0  0  0
    0.9281   -2.7900   -0.2977 H   0  0  0  0  0  0  0  0  0  0  0  0
    2.8716    0.4515    0.1100 H   0  0  0  0  0  0  0  0  0  0  0  0
    2.1866    2.1724    0.2913 H   0  0  0  0  0  0  0  0  0  0  0  0
  1  8  1  0
  1  9  1  0
  1  3  1  0
  1  2  1  0
  2 11  1  0
  2  4  1  0
  2 10  1  0
  3 12  1  0
  3  5  1  0
  3 13  1  0
  4  6  2  3
  4  5  1  0
  5  7  2  3
  6 16  1  0
  6 17  1  0
  7 15  1  0
  7 14  1  0
M  END
