
     RDKit          3D

 17 18  0  0  0  0  0  0  0  0999 V2000
    0.1663    0.2017   -0.4314 C   0  0  0  0  0  0  0  0  0  0  0  0
   -0.9270    0.5616    0.5977 C   0  0  0  0  0  0  0  0  0  0  0  0
   -0.4834    1.5718   -0.4396 C   0  0  0  0  0  0  0  0  0  0  0  0
   -0.6602   -0.9985   -0.8732 C   0  0  0  0  0  0  0  0  0  0  0  0
   -1.7443   -0.6285    0.1185 C   0  0  0  0  0  0  0  0  0  0  0  0
    1.5298   -0.0141    0.2435 C   0  0  0  0  0  0  0  0  0  0  0  0
    2.5643   -0.3513   -0.8139 C   0  0  0  0  0  2  0  0  0  0  0  0
   -0.5117    0.5767    1.6301 H   0  0  0  0  0  0  0  0  0  0  0  0
   -0.1768   -1.9718   -0.6377 H   0  0  0  0  0  0  0  0  0  0  0  0
   -0.9956   -0.9070   -1.9289 H   0  0  0  0  0  0  0  0  0  0  0  0
   -1.8776   -1.3916    0.9156 H   0  0  0  0  0  0  0  0  0  0  0  0
   -2.6913   -0.3166   -0.3733 H   0  0  0  0  0  0  0  0  0  0  0  0
   -1.2114    1.7388   -1.2618 H   0  0  0  0  0  0  0  0  0  0  0  0
    0.1362    2.3966   -0.0294 H   0  0  0  0  0  0  0  0  0  0  0  0
    1.4702   -0.8518    0.9720 H   0  0  0  0  0  0  0  0  0  0  0  0
    1.8581    0.9013    0.7819 H   0  0  0  0  0  0  0  0  0  0  0  0
    3.5545   -0.5173   -0.3397 H   0  0  0  0  0  0  0  0  0  0  0  0
  1  4  1  0
  1  2  1  0
  1  6  1  0
  1  3  1  0
  2  5  1  0
  2  8  1  0
  2  3  1  0
  3 14  1  0
  3 13  1  0
  4  5  1  0
  4 10  1  0
  4  9  1  0
  5 11  1  0
  5 12  1  0
  6 16  1  0
  6  7  1  0
  6 15  1  0
  7 17  1  0
M  RAD  1   7   3
M  END
