
     RDKit          3D

 17 18  0  0  0  0  0  0  0  0999 V2000
    0.1724    0.0358   -0.4536 C   0  0  0  0  0  0  0  0  0  0  0  0
   -0.8156    0.5803    0.5426 C   0  0  0  0  0  0  0  0  0  0  0  0
   -0.2945    1.4293   -0.5453 C   0  0  0  0  0  0  0  0  0  0  0  0
   -0.7452   -1.1303   -0.6579 C   0  0  0  0  0  0  0  0  0  0  0  0
   -1.8242   -0.4522    0.1504 C   0  0  0  0  0  0  0  0  0  0  0  0
    1.5253   -0.2379    0.1412 C   0  0  0  0  0  0  0  0  0  0  0  0
    2.5674    0.0674   -0.8940 C   0  0  0  0  0  2  0  0  0  0  0  0
   -0.5239    0.7540    1.5858 H   0  0  0  0  0  0  0  0  0  0  0  0
   -0.3911   -2.0229   -0.0889 H   0  0  0  0  0  0  0  0  0  0  0  0
   -1.0373   -1.3557   -1.7071 H   0  0  0  0  0  0  0  0  0  0  0  0
   -2.2110   -1.0098    1.0102 H   0  0  0  0  0  0  0  0  0  0  0  0
   -2.6433   -0.1108   -0.4997 H   0  0  0  0  0  0  0  0  0  0  0  0
   -1.0575    1.7655   -1.2774 H   0  0  0  0  0  0  0  0  0  0  0  0
    0.4872    2.1991   -0.3342 H   0  0  0  0  0  0  0  0  0  0  0  0
    1.5593   -1.2704    0.5209 H   0  0  0  0  0  0  0  0  0  0  0  0
    1.7166    0.4468    1.0061 H   0  0  0  0  0  0  0  0  0  0  0  0
    3.5154    0.3118   -0.3686 H   0  0  0  0  0  0  0  0  0  0  0  0
  1  4  1  0
  1  2  1  0
  1  6  1  0
  1  3  1  0
  2  5  1  0
  2  8  1  0
  2  3  1  0
  3 14  1  0
  3 13  1  0
  4  5  1  0
  4 10  1  0
  4  9  1  0
  5 11  1  0
  5 12  1  0
  6 16  1  0
  6  7  1  0
  6 15  1  0
  7 17  1  0
M  RAD  1   7   3
M  END
