
     RDKit          3D

 23 23  0  0  0  0  0  0  0  0999 V2000
    2.1134    0.8127   -1.0688 O   0  0  0  0  0  0  0  0  0  0  0  0
    2.7571   -0.0598   -1.8254 O   0  0  0  0  0  0  0  0  0  0  0  0
    4.0019   -0.0283   -1.3909 O   0  0  0  0  0  0  0  0  0  0  0  0
    4.1857   -1.1953   -0.8071 O   0  0  0  0  0  0  0  0  0  0  0  0
   -1.7433    0.4836    0.4678 C   0  0  0  0  0  0  0  0  0  0  0  0
   -1.3184   -0.5893   -0.5528 C   0  0  0  0  0  0  0  0  0  0  0  0
   -0.0943   -0.1222   -1.3389 C   0  0  0  0  0  0  0  0  0  0  0  0
    1.1025    0.0995   -0.3951 C   0  0  0  0  0  0  0  0  0  0  0  0
   -2.7820   -0.0875    1.4376 C   0  0  0  0  0  0  0  0  0  0  0  0
   -0.5626    1.0404    1.2362 C   0  0  0  0  0  0  0  0  0  0  0  0
    0.7118    0.8770    0.8403 C   0  0  0  0  0  0  0  0  0  0  0  0
   -2.2153    1.3284   -0.0805 H   0  0  0  0  0  0  0  0  0  0  0  0
   -2.1553   -0.7846   -1.2582 H   0  0  0  0  0  0  0  0  0  0  0  0
   -1.0744   -1.5439   -0.0348 H   0  0  0  0  0  0  0  0  0  0  0  0
    0.1684   -0.8897   -2.0987 H   0  0  0  0  0  0  0  0  0  0  0  0
   -0.3369    0.8229   -1.8738 H   0  0  0  0  0  0  0  0  0  0  0  0
    1.4815   -0.8882   -0.0412 H   0  0  0  0  0  0  0  0  0  0  0  0
   -3.1420    0.7074    2.1254 H   0  0  0  0  0  0  0  0  0  0  0  0
   -2.3438   -0.9118    2.0408 H   0  0  0  0  0  0  0  0  0  0  0  0
   -3.6563   -0.4789    0.8747 H   0  0  0  0  0  0  0  0  0  0  0  0
    1.5039    1.2937    1.4558 H   0  0  0  0  0  0  0  0  0  0  0  0
   -0.7546    1.6372    2.1236 H   0  0  0  0  0  0  0  0  0  0  0  0
    4.1531   -1.0001    0.1643 H   0  0  0  0  0  0  0  0  0  0  0  0
  1  8  1  0
  1  2  1  0
  2  3  1  0
  3  4  1  0
  4 23  1  0
  5 10  1  0
  5  6  1  0
  5  9  1  0
  5 12  1  0
  6 13  1  0
  6  7  1  0
  6 14  1  0
  7 16  1  0
  7 15  1  0
  7  8  1  0
  8 17  1  0
  8 11  1  0
  9 19  1  0
  9 18  1  0
  9 20  1  0
 10 22  1  0
 10 11  2  0
 11 21  1  0
M  END
