
     RDKit          3D

 23 23  0  0  0  0  0  0  0  0999 V2000
    2.0357    0.5274   -0.6762 O   0  0  0  0  0  0  0  0  0  0  0  0
    2.7694   -0.0836   -1.5628 O   0  0  0  0  0  0  0  0  0  0  0  0
    4.0256    0.2361   -1.3750 O   0  0  0  0  0  0  0  0  0  0  0  0
    4.5142   -0.2684   -0.2719 O   0  0  0  0  0  0  0  0  0  0  0  0
   -1.7383    0.5380    0.4611 C   0  0  0  0  0  0  0  0  0  0  0  0
   -1.5088   -0.1001   -0.8625 C   0  0  0  0  0  0  0  0  0  0  0  0
   -0.1104   -0.1592   -1.3421 C   0  0  0  0  0  0  0  0  0  0  0  0
    0.9506   -0.2857   -0.3091 C   0  0  0  0  0  0  0  0  0  0  0  0
   -2.5557   -0.4126    1.3310 C   0  0  0  0  0  0  0  0  0  0  0  0
   -0.5169    0.9369    1.1807 C   0  0  0  0  0  0  0  0  0  0  0  0
    0.5503    0.1641    1.0476 C   0  0  0  0  0  0  0  0  0  0  0  0
   -2.3764    1.4535    0.3682 H   0  0  0  0  0  0  0  0  0  0  0  0
   -2.1054    0.4543   -1.6321 H   0  0  0  0  0  0  0  0  0  0  0  0
   -1.9311   -1.1373   -0.8857 H   0  0  0  0  0  0  0  0  0  0  0  0
   -0.0138   -1.0343   -2.0359 H   0  0  0  0  0  0  0  0  0  0  0  0
    0.0950    0.7261   -1.9969 H   0  0  0  0  0  0  0  0  0  0  0  0
    1.3303   -1.3335   -0.2520 H   0  0  0  0  0  0  0  0  0  0  0  0
   -2.7040    0.0807    2.3157 H   0  0  0  0  0  0  0  0  0  0  0  0
   -2.0516   -1.3852    1.4539 H   0  0  0  0  0  0  0  0  0  0  0  0
   -3.5577   -0.5262    0.8646 H   0  0  0  0  0  0  0  0  0  0  0  0
    1.3515    0.1608    1.7921 H   0  0  0  0  0  0  0  0  0  0  0  0
   -0.5298    1.7622    1.8979 H   0  0  0  0  0  0  0  0  0  0  0  0
    4.0772    0.2092    0.4893 H   0  0  0  0  0  0  0  0  0  0  0  0
  1  8  1  0
  1  2  1  0
  2  3  1  0
  3  4  1  0
  4 23  1  0
  5 10  1  0
  5  6  1  0
  5  9  1  0
  5 12  1  0
  6 13  1  0
  6  7  1  0
  6 14  1  0
  7 16  1  0
  7 15  1  0
  7  8  1  0
  8 17  1  0
  8 11  1  0
  9 19  1  0
  9 18  1  0
  9 20  1  0
 10 22  1  0
 10 11  2  0
 11 21  1  0
M  END
