
     RDKit          3D

 20 21  0  0  0  0  0  0  0  0999 V2000
   -0.2952   -0.8984    0.5545 C   0  0  0  0  0  0  0  0  0  0  0  0
    3.1013    0.4237   -0.3702 C   0  0  0  0  0  0  0  0  0  0  0  0
   -0.4253    0.5871    0.6755 C   0  0  0  0  0  0  0  0  0  0  0  0
    1.6908    0.1690    0.0507 C   0  0  0  0  0  0  0  0  0  0  0  0
    1.1098   -1.0249    0.0636 C   0  0  0  0  0  0  0  0  0  0  0  0
   -1.3343   -1.4424   -0.3944 C   0  0  0  0  0  0  0  0  0  0  0  0
    0.7253    1.1923    0.4271 C   0  0  0  0  0  0  0  0  0  0  0  0
   -1.7383    1.2342    0.5829 C   0  0  0  0  0  0  0  0  0  0  0  0
   -2.4974   -0.7935   -0.5819 C   0  0  0  0  0  0  0  0  0  0  0  0
   -2.7321    0.5568   -0.0057 C   0  0  0  0  0  0  0  0  0  0  0  0
   -0.3978   -1.3842    1.5483 H   0  0  0  0  0  0  0  0  0  0  0  0
    3.3298    1.5089   -0.3163 H   0  0  0  0  0  0  0  0  0  0  0  0
    3.7962   -0.1233    0.3008 H   0  0  0  0  0  0  0  0  0  0  0  0
    3.2498    0.0764   -1.4142 H   0  0  0  0  0  0  0  0  0  0  0  0
    1.6043   -1.9542   -0.1894 H   0  0  0  0  0  0  0  0  0  0  0  0
   -1.1965   -2.4254   -0.8274 H   0  0  0  0  0  0  0  0  0  0  0  0
    0.8590    2.2606    0.3131 H   0  0  0  0  0  0  0  0  0  0  0  0
   -3.2703   -1.2478   -1.1883 H   0  0  0  0  0  0  0  0  0  0  0  0
   -1.8799    2.2590    0.9024 H   0  0  0  0  0  0  0  0  0  0  0  0
   -3.6993    1.0259   -0.1314 H   0  0  0  0  0  0  0  0  0  0  0  0
  1  5  1  0
  1  6  1  0
  1  3  1  0
  1 11  1  0
  2 14  1  0
  2 12  1  0
  2 13  1  0
  2  4  1  0
  3  8  1  0
  3  7  2  0
  4  5  2  0
  4  7  1  0
  5 15  1  0
  6  9  2  0
  6 16  1  0
  7 17  1  0
  8 10  2  0
  8 19  1  0
  9 10  1  0
  9 18  1  0
 10 20  1  0
M  END
