
     RDKit          3D

 19 20  0  0  0  0  0  0  0  0999 V2000
   -0.4428    0.4875   -1.7696 O   0  0  0  0  0  0  0  0  0  0  0  0
    0.8006    0.9854   -1.6320 O   0  0  0  0  0  0  0  0  0  0  0  0
   -1.3632   -0.8328   -0.0139 C   0  0  0  0  0  0  0  0  0  0  0  0
   -0.0450   -1.3592    0.6068 C   0  0  0  0  0  0  0  0  0  0  0  0
   -1.2451    0.5912   -0.5848 C   0  0  0  0  0  0  0  0  0  0  0  0
    1.2491   -0.9213   -0.1282 C   0  0  0  0  0  0  0  0  0  0  0  0
    1.3777    0.6113   -0.3891 C   0  0  0  0  0  0  0  0  0  0  0  0
   -0.6515    1.5117    0.4681 C   0  0  0  0  0  0  0  0  0  0  0  0
    0.6690    1.4427    0.6354 C   0  0  0  0  0  0  0  0  0  0  0  0
   -0.0817   -2.4695    0.6384 H   0  0  0  0  0  0  0  0  0  0  0  0
    0.0145   -1.0182    1.6637 H   0  0  0  0  0  0  0  0  0  0  0  0
   -2.1610   -0.8560    0.7605 H   0  0  0  0  0  0  0  0  0  0  0  0
   -1.6794   -1.5201   -0.8292 H   0  0  0  0  0  0  0  0  0  0  0  0
   -2.2559    0.9572   -0.8639 H   0  0  0  0  0  0  0  0  0  0  0  0
    1.3252   -1.4666   -1.0940 H   0  0  0  0  0  0  0  0  0  0  0  0
    2.1136   -1.2457    0.4908 H   0  0  0  0  0  0  0  0  0  0  0  0
    2.4537    0.8875   -0.4020 H   0  0  0  0  0  0  0  0  0  0  0  0
   -1.2706    2.1577    1.0824 H   0  0  0  0  0  0  0  0  0  0  0  0
    1.1929    2.0572    1.3606 H   0  0  0  0  0  0  0  0  0  0  0  0
  1  5  1  0
  1  2  1  0
  2  7  1  0
  3 13  1  0
  3  4  1  0
  3  5  1  0
  3 12  1  0
  4 10  1  0
  4 11  1  0
  4  6  1  0
  5 14  1  0
  5  8  1  0
  6  7  1  0
  6 15  1  0
  6 16  1  0
  7  9  1  0
  7 17  1  0
  8  9  2  0
  8 18  1  0
  9 19  1  0
M  END
