
     RDKit          3D

  3  3  0  0  0  0  0  0  0  0999 V2000
   -0.2750    0.6897   -0.0198 O   0  0  0  0  0  0  0  0  0  0  0  0
   -0.4585   -0.5836   -0.0295 O   0  0  0  0  0  0  0  0  0  0  0  0
    0.7335   -0.1061    0.0493 O   0  0  0  0  0  0  0  0  0  0  0  0
  1  2  1  0
  1  3  1  0
  2  3  1  0
M  END
