
     RDKit          3D

 22 22  0  0  0  0  0  0  0  0999 V2000
   -2.7733    0.0131    0.3241 O   0  0  0  0  0  0  0  0  0  0  0  0
    2.8007    1.2424   -0.0261 O   0  0  0  0  0  0  0  0  0  0  0  0
   -3.0784    1.2403    0.7242 O   0  0  0  0  0  0  0  0  0  0  0  0
    0.4431   -1.5430   -0.6620 C   0  0  0  0  0  0  0  0  0  0  0  0
   -0.9441   -1.3707   -0.1539 C   0  0  0  0  0  0  0  0  0  0  0  0
    1.5181   -0.8053    0.0588 C   0  0  0  0  0  0  0  0  0  0  0  0
   -1.4378    0.0333   -0.0457 C   0  0  0  0  0  0  0  0  0  0  0  0
    1.5524    0.6749   -0.1873 C   0  0  0  0  0  0  0  0  0  0  0  0
   -0.6768    0.8371    0.9671 C   0  0  0  0  0  0  0  0  0  0  0  0
    0.5679    1.2648    0.7814 C   0  0  0  0  0  0  0  0  0  0  0  0
    1.4113   -0.9764    1.1539 H   0  0  0  0  0  0  0  0  0  0  0  0
    2.4908   -1.2926   -0.2079 H   0  0  0  0  0  0  0  0  0  0  0  0
   -1.2718    0.5296   -1.0338 H   0  0  0  0  0  0  0  0  0  0  0  0
    0.6879   -2.6292   -0.5129 H   0  0  0  0  0  0  0  0  0  0  0  0
    0.5404   -1.4118   -1.7680 H   0  0  0  0  0  0  0  0  0  0  0  0
   -1.1124   -1.8959    0.7939 H   0  0  0  0  0  0  0  0  0  0  0  0
   -1.6174   -1.8759   -0.8937 H   0  0  0  0  0  0  0  0  0  0  0  0
    1.1772    0.8231   -1.2321 H   0  0  0  0  0  0  0  0  0  0  0  0
    0.9216    1.9445    1.5337 H   0  0  0  0  0  0  0  0  0  0  0  0
   -1.2109    1.1351    1.8689 H   0  0  0  0  0  0  0  0  0  0  0  0
    2.6707    2.1486    0.3766 H   0  0  0  0  0  0  0  0  0  0  0  0
   -2.6591    1.9139    0.1351 H   0  0  0  0  0  0  0  0  0  0  0  0
  1  3  1  0
  1  7  1  0
  2 21  1  0
  2  8  1  0
  3 22  1  0
  4 14  1  0
  4  6  1  0
  4  5  1  0
  4 15  1  0
  5  7  1  0
  5 16  1  0
  5 17  1  0
  6  8  1  0
  6 11  1  0
  6 12  1  0
  7  9  1  0
  7 13  1  0
  8 18  1  0
  8 10  1  0
  9 10  2  0
  9 20  1  0
 10 19  1  0
M  END
