
     RDKit          3D

 20 21  0  0  0  0  0  0  0  0999 V2000
   -2.1136   -0.9992    0.0070 C   0  0  0  0  0  0  0  0  0  0  0  0
    2.2251    1.0576   -0.0076 C   0  0  0  0  0  0  0  0  0  0  0  0
   -1.6123    0.4146   -0.0539 C   0  0  0  0  0  0  0  0  0  0  0  0
   -0.1570    0.3775   -0.0222 C   0  0  0  0  0  0  0  0  0  0  0  0
    0.2271   -1.0031    0.0551 C   0  0  0  0  0  0  0  0  0  0  0  0
   -0.8366   -1.7955    0.0732 C   0  0  0  0  0  0  0  0  0  0  0  0
    0.7391    1.3660   -0.0536 C   0  0  0  0  0  0  0  0  0  0  0  0
    2.5691   -0.4254    0.0740 C   0  0  0  0  0  0  0  0  0  0  0  0
    1.6369   -1.3885    0.1034 C   0  0  0  0  0  0  0  0  0  0  0  0
   -2.3832    1.4985   -0.1242 C   0  0  0  0  0  0  0  0  0  0  0  0
   -2.7236   -1.1649    0.9202 H   0  0  0  0  0  0  0  0  0  0  0  0
   -2.6861   -1.2570   -0.9091 H   0  0  0  0  0  0  0  0  0  0  0  0
    2.6991    1.4784   -0.9189 H   0  0  0  0  0  0  0  0  0  0  0  0
    2.6624    1.5686    0.8754 H   0  0  0  0  0  0  0  0  0  0  0  0
   -0.7884   -2.8754    0.1285 H   0  0  0  0  0  0  0  0  0  0  0  0
    0.4184    2.3975   -0.1121 H   0  0  0  0  0  0  0  0  0  0  0  0
    3.6136   -0.7081    0.1096 H   0  0  0  0  0  0  0  0  0  0  0  0
    1.9239   -2.4310    0.1617 H   0  0  0  0  0  0  0  0  0  0  0  0
   -1.9527    2.4898   -0.1653 H   0  0  0  0  0  0  0  0  0  0  0  0
   -3.4609    1.3996   -0.1413 H   0  0  0  0  0  0  0  0  0  0  0  0
  1 12  1  0
  1  3  1  0
  1  6  1  0
  1 11  1  0
  2 13  1  0
  2  7  1  0
  2  8  1  0
  2 14  1  0
  3  4  1  0
  3 10  2  3
  4  5  1  0
  4  7  2  0
  5  9  1  0
  5  6  2  0
  6 15  1  0
  7 16  1  0
  8 17  1  0
  8  9  2  0
  9 18  1  0
 10 19  1  0
 10 20  1  0
M  END
