
     RDKit          3D

 21 21  0  0  0  0  0  0  0  0999 V2000
    0.8075    0.4093   -0.7803 O   0  0  0  0  0  0  0  0  0  0  0  0
    4.0164    0.5747    0.4405 O   0  0  0  0  0  0  0  0  0  0  0  0
    0.3333   -0.6729   -0.0452 C   0  0  0  0  0  0  0  0  0  0  0  0
   -0.8375   -0.3700    0.8658 C   0  0  0  0  0  0  0  0  0  0  0  0
    1.6187   -0.6281    0.7377 C   0  0  0  0  0  0  0  0  0  0  0  0
    2.0835   -0.0943   -0.6125 C   0  0  0  0  0  0  0  0  0  0  0  0
   -2.1531   -0.4050    0.1388 C   0  0  0  0  0  0  0  0  0  0  0  0
   -2.7762    0.9599   -0.0312 C   0  0  0  0  0  0  0  0  0  0  0  0
    3.1511    0.9191   -0.3634 C   0  0  0  0  0  0  0  0  0  0  0  0
    0.2389   -1.6220   -0.5888 H   0  0  0  0  0  0  0  0  0  0  0  0
   -0.6517    0.5654    1.4137 H   0  0  0  0  0  0  0  0  0  0  0  0
   -0.8345   -1.1895    1.6292 H   0  0  0  0  0  0  0  0  0  0  0  0
   -2.8906   -1.0002    0.7310 H   0  0  0  0  0  0  0  0  0  0  0  0
   -2.0819   -0.8997   -0.8545 H   0  0  0  0  0  0  0  0  0  0  0  0
    2.3530   -0.8717   -1.3411 H   0  0  0  0  0  0  0  0  0  0  0  0
    2.0642   -1.5982    1.0036 H   0  0  0  0  0  0  0  0  0  0  0  0
    1.6694    0.1345    1.5330 H   0  0  0  0  0  0  0  0  0  0  0  0
   -3.3676    1.2524    0.8734 H   0  0  0  0  0  0  0  0  0  0  0  0
   -2.0582    1.7334   -0.3329 H   0  0  0  0  0  0  0  0  0  0  0  0
   -3.5447    0.8370   -0.8369 H   0  0  0  0  0  0  0  0  0  0  0  0
    2.8601    1.9658   -0.2967 H   0  0  0  0  0  0  0  0  0  0  0  0
  1  3  1  0
  1  6  1  0
  2  9  2  0
  3  5  1  0
  3  4  1  0
  3 10  1  0
  4 12  1  0
  4 11  1  0
  4  7  1  0
  5 16  1  0
  5 17  1  0
  5  6  1  0
  6  9  1  0
  6 15  1  0
  7 14  1  0
  7  8  1  0
  7 13  1  0
  8 19  1  0
  8 18  1  0
  8 20  1  0
  9 21  1  0
M  END
