
     RDKit          3D

 19 19  0  0  0  0  0  0  0  0999 V2000
    2.6619   -0.3454    0.3332 C   0  0  0  0  0  0  0  0  0  0  0  0
    1.3956    0.0947   -0.2841 C   0  0  0  0  0  0  0  0  0  0  0  0
    0.0767   -0.3950    0.1375 C   0  0  0  0  0  0  0  0  0  0  0  0
   -0.7080   -1.1741   -0.7045 C   0  0  0  0  0  0  0  0  0  0  0  0
   -0.6044    0.1667    1.2106 C   0  0  0  0  0  0  0  0  0  0  0  0
   -2.0819   -0.9847   -0.7280 C   0  0  0  0  0  0  0  0  0  0  0  0
   -1.9737    0.3913    1.1802 C   0  0  0  0  0  0  0  0  0  0  0  0
   -2.7119   -0.0566    0.0923 C   0  0  0  0  0  0  0  0  0  0  0  0
    1.4382    1.2506   -0.9495 C   0  0  0  0  0  0  0  0  0  0  0  0
    2.5835   -1.3222    0.8504 H   0  0  0  0  0  0  0  0  0  0  0  0
    3.0343    0.4048    1.0755 H   0  0  0  0  0  0  0  0  0  0  0  0
    3.4863   -0.4454   -0.4166 H   0  0  0  0  0  0  0  0  0  0  0  0
   -0.2191   -1.7716   -1.4448 H   0  0  0  0  0  0  0  0  0  0  0  0
   -0.0140    0.6008    1.9920 H   0  0  0  0  0  0  0  0  0  0  0  0
   -2.7199   -1.4598   -1.4749 H   0  0  0  0  0  0  0  0  0  0  0  0
   -2.4538    1.1729    1.7668 H   0  0  0  0  0  0  0  0  0  0  0  0
   -3.5220    0.5608   -0.3007 H   0  0  0  0  0  0  0  0  0  0  0  0
    1.1066    1.1756   -1.9872 H   0  0  0  0  0  0  0  0  0  0  0  0
    1.2258    2.1364   -0.3480 H   0  0  0  0  0  0  0  0  0  0  0  0
  1 11  1  0
  1 12  1  0
  1 10  1  0
  1  2  1  0
  2  3  1  0
  2  9  2  3
  3  5  2  0
  3  4  1  0
  4 13  1  0
  4  6  2  0
  5  7  1  0
  5 14  1  0
  6 15  1  0
  6  8  1  0
  7 16  1  0
  7  8  2  0
  8 17  1  0
  9 19  1  0
  9 18  1  0
M  END
