
     RDKit          3D

 21 21  0  0  0  0  0  0  0  0999 V2000
   -1.7654    2.0319    0.4426 O   0  0  0  0  0  0  0  0  0  0  0  0
    3.3019    0.7352   -0.4086 O   0  0  0  0  0  0  0  0  0  0  0  0
    1.1711   -0.1063   -0.2648 C   0  0  0  0  0  0  0  0  0  0  0  0
   -1.0550    0.9807   -0.1039 C   0  0  0  0  0  0  0  0  0  0  0  0
    0.3723    0.9937    0.3959 C   0  0  0  0  0  0  0  0  0  0  0  0
    0.5121   -1.4341    0.0676 C   0  0  0  0  0  0  0  0  0  0  0  0
   -1.6638   -0.3746    0.2354 C   0  0  0  0  0  0  0  0  0  0  0  0
   -0.8653   -1.3780   -0.5835 C   0  0  0  0  0  0  0  0  0  0  0  0
    2.5628   -0.0183    0.2239 C   0  0  0  0  0  0  0  0  0  0  0  0
    1.1092   -0.0044   -1.3671 H   0  0  0  0  0  0  0  0  0  0  0  0
   -1.0096    1.0256   -1.2204 H   0  0  0  0  0  0  0  0  0  0  0  0
   -2.7225   -0.4475   -0.0400 H   0  0  0  0  0  0  0  0  0  0  0  0
   -1.5001   -0.5132    1.3326 H   0  0  0  0  0  0  0  0  0  0  0  0
   -0.7526   -0.9067   -1.5928 H   0  0  0  0  0  0  0  0  0  0  0  0
   -1.3457   -2.3607   -0.6513 H   0  0  0  0  0  0  0  0  0  0  0  0
    1.0424   -2.2949   -0.3617 H   0  0  0  0  0  0  0  0  0  0  0  0
    0.3471   -1.5200    1.1652 H   0  0  0  0  0  0  0  0  0  0  0  0
    0.4173    0.8109    1.4810 H   0  0  0  0  0  0  0  0  0  0  0  0
    0.8585    1.9553    0.1477 H   0  0  0  0  0  0  0  0  0  0  0  0
    2.6882    0.0380    1.3109 H   0  0  0  0  0  0  0  0  0  0  0  0
   -1.7029    2.7872   -0.2087 H   0  0  0  0  0  0  0  0  0  0  0  0
  1 21  1  0
  1  4  1  0
  2  9  2  0
  3  5  1  0
  3  6  1  0
  3 10  1  0
  3  9  1  0
  4  7  1  0
  4  5  1  0
  4 11  1  0
  5 18  1  0
  5 19  1  0
  6 17  1  0
  6 16  1  0
  6  8  1  0
  7  8  1  0
  7 12  1  0
  7 13  1  0
  8 15  1  0
  8 14  1  0
  9 20  1  0
M  END
