
     RDKit          3D

 20 20  0  0  0  0  0  0  0  0999 V2000
    0.6872    0.3647   -0.0086 C   0  0  0  0  0  0  0  0  0  0  0  0
   -0.7836    0.5467   -0.0845 C   0  0  0  0  0  0  0  0  0  0  0  0
    1.5173    1.3830   -0.5091 C   0  0  0  0  0  0  0  0  0  0  0  0
    1.2832   -0.7723    0.5763 C   0  0  0  0  0  0  0  0  0  0  0  0
    2.9088    1.2591   -0.4507 C   0  0  0  0  0  0  0  0  0  0  0  0
    2.6758   -0.8900    0.6325 C   0  0  0  0  0  0  0  0  0  0  0  0
    3.4875    0.1224    0.1168 C   0  0  0  0  0  0  0  0  0  0  0  0
   -1.6650   -0.4578   -0.0059 C   0  0  0  0  0  0  0  0  0  0  0  0
   -3.1087   -0.2007   -0.1015 C   0  0  0  0  0  0  0  0  0  0  0  0
   -3.9710   -1.2080   -0.0378 C   0  0  0  0  0  0  0  0  0  0  0  0
   -1.1559    1.5515   -0.2536 H   0  0  0  0  0  0  0  0  0  0  0  0
    1.0879    2.2727   -0.9536 H   0  0  0  0  0  0  0  0  0  0  0  0
    0.6865   -1.5609    1.0125 H   0  0  0  0  0  0  0  0  0  0  0  0
   -1.3324   -1.4816    0.1038 H   0  0  0  0  0  0  0  0  0  0  0  0
    3.5386    2.0461   -0.8451 H   0  0  0  0  0  0  0  0  0  0  0  0
    3.1262   -1.7649    1.0835 H   0  0  0  0  0  0  0  0  0  0  0  0
    4.5648    0.0288    0.1628 H   0  0  0  0  0  0  0  0  0  0  0  0
   -3.4762    0.8125   -0.2235 H   0  0  0  0  0  0  0  0  0  0  0  0
   -5.0354   -1.0255   -0.1071 H   0  0  0  0  0  0  0  0  0  0  0  0
   -5.0354   -1.0255   -0.1071 H   0  0  0  0  0  0  0  0  0  0  0  0
  1  3  2  0
  1  2  1  0
  1  4  1  0
  2 11  1  0
  2  8  2  3
  3 12  1  0
  3  5  1  0
  4 13  1  0
  4  6  2  0
  5  7  2  0
  5 15  1  0
  6 16  1  0
  6  7  1  0
  7 17  1  0
  8 14  1  0
  8  9  1  0
  9 10  2  3
  9 18  1  0
 10 20  1  0
 10 19  1  0
M  END
