
     RDKit          3D

 17 18  0  0  0  0  0  0  0  0999 V2000
   -1.0967    0.5104   -0.7527 C   0  0  0  0  0  0  0  0  0  0  0  0
   -1.9932   -0.6870   -0.4824 C   0  0  0  0  0  0  0  0  0  0  0  0
   -1.9868    0.4888    0.4795 C   0  0  0  0  0  0  0  0  0  0  0  0
    1.3677   -0.7165   -0.9507 C   0  0  0  0  0  0  0  0  0  0  0  0
    2.3498   -0.0828   -0.1259 C   0  0  0  0  0  0  0  0  0  0  0  0
    0.3541    0.2706   -0.4710 C   0  0  0  0  0  0  0  0  0  0  0  0
    1.3133    0.8901    0.3288 C   0  0  0  0  0  0  0  0  0  0  0  0
   -1.4118    1.1853   -1.5760 H   0  0  0  0  0  0  0  0  0  0  0  0
   -2.8990   -0.7383   -1.1226 H   0  0  0  0  0  0  0  0  0  0  0  0
   -1.4941   -1.5959   -0.0818 H   0  0  0  0  0  0  0  0  0  0  0  0
   -1.4818    0.2752    1.4466 H   0  0  0  0  0  0  0  0  0  0  0  0
   -2.8881    1.1334    0.4076 H   0  0  0  0  0  0  0  0  0  0  0  0
    1.5653   -0.6102   -2.0402 H   0  0  0  0  0  0  0  0  0  0  0  0
    1.1212   -1.7533   -0.6319 H   0  0  0  0  0  0  0  0  0  0  0  0
    3.1606    0.4154   -0.7017 H   0  0  0  0  0  0  0  0  0  0  0  0
    2.7106   -0.7229    0.7093 H   0  0  0  0  0  0  0  0  0  0  0  0
    1.3087    1.7375    1.0057 H   0  0  0  0  0  0  0  0  0  0  0  0
  1  2  1  0
  1  6  1  0
  1  3  1  0
  1  8  1  0
  2  9  1  0
  2  3  1  0
  2 10  1  0
  3 11  1  0
  3 12  1  0
  4 13  1  0
  4  6  1  0
  4 14  1  0
  4  5  1  0
  5  7  1  0
  5 16  1  0
  5 15  1  0
  6  7  2  0
  7 17  1  0
M  END
