
     RDKit          3D

 22 22  0  0  0  0  0  0  0  0999 V2000
   -1.6108    0.8205    0.0510 C   0  0  0  0  0  0  0  0  0  0  0  0
    4.0769   -0.2172    0.3898 C   0  0  0  0  0  0  0  0  0  0  0  0
   -2.1010   -0.1656    1.0654 C   0  0  0  0  0  0  0  0  0  0  0  0
   -2.7827    1.1163   -0.7886 C   0  0  0  0  0  0  0  0  0  0  0  0
   -0.5109    0.1478   -0.6832 C   0  0  0  0  0  0  0  0  0  0  0  0
    2.9740   -0.2708   -0.6069 C   0  0  0  0  0  0  0  0  0  0  0  0
   -3.1691   -0.7186    0.5002 C   0  0  0  0  0  0  0  0  0  0  0  0
   -3.6615    0.1390   -0.5619 C   0  0  0  0  0  0  0  0  0  0  0  0
    0.7321    0.3847   -0.2616 C   0  0  0  0  0  0  0  0  0  0  0  0
    1.7592   -0.6347   -0.1968 C   0  0  0  0  0  0  0  0  0  0  0  0
   -1.2300    1.7017    0.6117 H   0  0  0  0  0  0  0  0  0  0  0  0
    4.2578   -1.2325    0.7909 H   0  0  0  0  0  0  0  0  0  0  0  0
    4.9955    0.1468   -0.1015 H   0  0  0  0  0  0  0  0  0  0  0  0
    3.8512    0.4366    1.2481 H   0  0  0  0  0  0  0  0  0  0  0  0
   -1.3971   -0.5987    1.7755 H   0  0  0  0  0  0  0  0  0  0  0  0
   -3.0867    2.1325   -1.0327 H   0  0  0  0  0  0  0  0  0  0  0  0
   -0.6845   -0.8553   -1.0774 H   0  0  0  0  0  0  0  0  0  0  0  0
    3.2494   -0.6546   -1.5892 H   0  0  0  0  0  0  0  0  0  0  0  0
    1.6924   -1.5551    0.3482 H   0  0  0  0  0  0  0  0  0  0  0  0
   -3.6126   -1.6230    0.8872 H   0  0  0  0  0  0  0  0  0  0  0  0
   -4.6957    0.1237   -0.9050 H   0  0  0  0  0  0  0  0  0  0  0  0
    0.9541    1.3763    0.1370 H   0  0  0  0  0  0  0  0  0  0  0  0
  1 11  1  0
  1  4  1  0
  1  3  1  0
  1  5  1  0
  2  6  1  0
  2 12  1  0
  2 13  1  0
  2 14  1  0
  3  7  2  0
  3 15  1  0
  4 16  1  0
  4  8  2  0
  5 17  1  0
  5  9  2  3
  6 10  2  3
  6 18  1  0
  7 20  1  0
  7  8  1  0
  8 21  1  0
  9 10  1  0
  9 22  1  0
 10 19  1  0
M  END
