
     RDKit          3D

 21 22  0  0  0  0  0  0  0  0999 V2000
   -1.8722    0.3374   -1.1683 O   0  0  0  0  0  0  0  0  0  0  0  0
    0.8554    1.8350   -0.9374 O   0  0  0  0  0  0  0  0  0  0  0  0
   -0.9368    1.0465   -1.6867 O   0  0  0  0  0  0  0  0  0  0  0  0
   -0.4602    2.0075   -0.9539 O   0  0  0  0  0  0  0  0  0  0  0  0
   -0.6714   -1.3895    0.0459 C   0  0  0  0  0  0  0  0  0  0  0  0
   -1.6330   -0.2567    0.0336 C   0  0  0  0  0  0  0  0  0  0  0  0
    0.5792   -1.2214   -0.7295 C   0  0  0  0  0  0  0  0  0  0  0  0
    1.6141   -0.3211   -0.1655 C   0  0  0  0  0  0  0  0  0  0  0  0
    1.1882    1.0634    0.1804 C   0  0  0  0  0  0  0  0  0  0  0  0
   -1.1718    0.6954    1.0982 C   0  0  0  0  0  0  0  0  0  0  0  0
    0.0934    1.1291    1.1788 C   0  0  0  0  0  0  0  0  0  0  0  0
    1.0520   -2.2406   -0.7617 H   0  0  0  0  0  0  0  0  0  0  0  0
    0.3559   -1.0129   -1.7957 H   0  0  0  0  0  0  0  0  0  0  0  0
   -0.4492   -1.6285    1.1104 H   0  0  0  0  0  0  0  0  0  0  0  0
   -1.1951   -2.2982   -0.3478 H   0  0  0  0  0  0  0  0  0  0  0  0
   -2.6181   -0.6607    0.3848 H   0  0  0  0  0  0  0  0  0  0  0  0
    2.1373   -0.7655    0.7041 H   0  0  0  0  0  0  0  0  0  0  0  0
    2.4049   -0.2147   -0.9530 H   0  0  0  0  0  0  0  0  0  0  0  0
    2.0871    1.5666    0.6218 H   0  0  0  0  0  0  0  0  0  0  0  0
   -1.6438    0.5804    2.0801 H   0  0  0  0  0  0  0  0  0  0  0  0
    0.2839    1.7487    2.0615 H   0  0  0  0  0  0  0  0  0  0  0  0
  1  3  1  0
  1  6  1  0
  2  4  1  0
  2  9  1  0
  3  4  1  0
  5  7  1  0
  5 15  1  0
  5 14  1  0
  5  6  1  0
  6 10  1  0
  6 16  1  0
  7  8  1  0
  7 13  1  0
  7 12  1  0
  8 18  1  0
  8  9  1  0
  8 17  1  0
  9 19  1  0
  9 11  1  0
 10 20  1  0
 10 11  2  0
 11 21  1  0
M  END
