
     RDKit          3D

 21 22  0  0  0  0  0  0  0  0999 V2000
   -2.0241    0.5597   -0.9448 O   0  0  0  0  0  0  0  0  0  0  0  0
    0.8778    1.5349   -1.2664 O   0  0  0  0  0  0  0  0  0  0  0  0
   -0.9970    0.7485   -1.7542 O   0  0  0  0  0  0  0  0  0  0  0  0
   -0.4068    1.8481   -1.3274 O   0  0  0  0  0  0  0  0  0  0  0  0
   -0.7829   -1.4461   -0.0410 C   0  0  0  0  0  0  0  0  0  0  0  0
   -1.5956   -0.1458    0.2091 C   0  0  0  0  0  0  0  0  0  0  0  0
    0.6012   -1.3265   -0.7095 C   0  0  0  0  0  0  0  0  0  0  0  0
    1.5955   -0.4159    0.0236 C   0  0  0  0  0  0  0  0  0  0  0  0
    1.2070    1.0737    0.0398 C   0  0  0  0  0  0  0  0  0  0  0  0
   -1.0007    0.7845    1.2404 C   0  0  0  0  0  0  0  0  0  0  0  0
    0.2022    1.3687    1.1395 C   0  0  0  0  0  0  0  0  0  0  0  0
    1.0427   -2.3471   -0.7228 H   0  0  0  0  0  0  0  0  0  0  0  0
    0.5211   -1.0446   -1.7784 H   0  0  0  0  0  0  0  0  0  0  0  0
   -0.6492   -1.9629    0.9352 H   0  0  0  0  0  0  0  0  0  0  0  0
   -1.4031   -2.1210   -0.6703 H   0  0  0  0  0  0  0  0  0  0  0  0
   -2.5360   -0.5084    0.6792 H   0  0  0  0  0  0  0  0  0  0  0  0
    1.7427   -0.7847    1.0631 H   0  0  0  0  0  0  0  0  0  0  0  0
    2.5775   -0.5103   -0.4900 H   0  0  0  0  0  0  0  0  0  0  0  0
    2.1284    1.6226    0.3330 H   0  0  0  0  0  0  0  0  0  0  0  0
   -1.6076    1.0271    2.1087 H   0  0  0  0  0  0  0  0  0  0  0  0
    0.5068    2.0454    1.9333 H   0  0  0  0  0  0  0  0  0  0  0  0
  1  3  1  0
  1  6  1  0
  2  4  1  0
  2  9  1  0
  3  4  1  0
  5  7  1  0
  5 15  1  0
  5 14  1  0
  5  6  1  0
  6 10  1  0
  6 16  1  0
  7  8  1  0
  7 13  1  0
  7 12  1  0
  8 18  1  0
  8  9  1  0
  8 17  1  0
  9 19  1  0
  9 11  1  0
 10 20  1  0
 10 11  2  0
 11 21  1  0
M  END
