
     RDKit          3D

 17 17  0  0  0  0  0  0  0  0999 V2000
   -1.4143    0.4765    0.0309 C   0  0  0  0  0  0  0  0  0  0  0  0
   -2.5467   -0.2799    0.6980 C   0  0  0  0  0  0  0  0  0  0  0  0
   -2.6247   -0.0028   -0.7495 C   0  0  0  0  0  0  0  0  0  0  0  0
    3.5085    0.1394   -0.1441 C   0  0  0  0  0  0  0  0  0  0  0  0
   -0.1625   -0.2417   -0.2954 C   0  0  0  0  0  0  0  0  0  0  0  0
    1.0352    0.1126    0.1757 C   0  0  0  0  0  0  0  0  0  0  0  0
    2.1607    0.2015   -0.8116 C   0  0  0  0  0  2  0  0  0  0  0  0
   -1.3308    1.5454    0.2877 H   0  0  0  0  0  0  0  0  0  0  0  0
   -2.2515   -1.2711    1.0798 H   0  0  0  0  0  0  0  0  0  0  0  0
   -3.2438    0.3023    1.3464 H   0  0  0  0  0  0  0  0  0  0  0  0
   -3.2678    0.8219   -1.0938 H   0  0  0  0  0  0  0  0  0  0  0  0
   -2.4991   -0.8019   -1.5021 H   0  0  0  0  0  0  0  0  0  0  0  0
    3.3908    0.5122    0.8911 H   0  0  0  0  0  0  0  0  0  0  0  0
    3.8838   -0.8945   -0.1695 H   0  0  0  0  0  0  0  0  0  0  0  0
    4.2338    0.7745   -0.6827 H   0  0  0  0  0  0  0  0  0  0  0  0
   -0.1518   -1.1085   -0.9606 H   0  0  0  0  0  0  0  0  0  0  0  0
    1.2801   -0.2860    1.1648 H   0  0  0  0  0  0  0  0  0  0  0  0
  1  8  1  0
  1  5  1  0
  1  2  1  0
  1  3  1  0
  2  9  1  0
  2 10  1  0
  2  3  1  0
  3 11  1  0
  3 12  1  0
  4 13  1  0
  4 14  1  0
  4  7  1  0
  4 15  1  0
  5  6  2  3
  5 16  1  0
  6 17  1  0
  6  7  1  0
M  RAD  1   7   3
M  END
