
     RDKit          3D

 20 21  0  0  0  0  0  0  0  0999 V2000
    0.8398   -1.3164   -0.2499 C   0  0  0  0  0  0  0  0  0  0  0  0
   -2.3182   -1.3156   -0.2870 C   0  0  0  0  0  0  0  0  0  0  0  0
   -0.0982   -0.1636   -0.0335 C   0  0  0  0  0  0  0  0  0  0  0  0
   -1.4255   -0.1414   -0.0447 C   0  0  0  0  0  0  0  0  0  0  0  0
    0.3679    1.1724    0.2357 C   0  0  0  0  0  0  0  0  0  0  0  0
    2.2888   -0.8704   -0.1448 C   0  0  0  0  0  0  0  0  0  0  0  0
   -1.8700    1.2371    0.2221 C   0  0  0  0  0  0  0  0  0  0  0  0
    1.6583    1.4789    0.3114 C   0  0  0  0  0  0  0  0  0  0  0  0
   -0.8046    2.0185    0.3889 C   0  0  0  0  0  0  0  0  0  0  0  0
    2.6558    0.4026    0.1108 C   0  0  0  0  0  0  0  0  0  0  0  0
    0.6658   -1.7471   -1.2583 H   0  0  0  0  0  0  0  0  0  0  0  0
    0.6449   -2.0971    0.5150 H   0  0  0  0  0  0  0  0  0  0  0  0
   -2.1345   -2.0917    0.4852 H   0  0  0  0  0  0  0  0  0  0  0  0
   -2.1136   -1.7410   -1.2917 H   0  0  0  0  0  0  0  0  0  0  0  0
   -3.3828   -1.0047   -0.2382 H   0  0  0  0  0  0  0  0  0  0  0  0
    3.0611   -1.6164   -0.2829 H   0  0  0  0  0  0  0  0  0  0  0  0
    1.9766    2.4931    0.5154 H   0  0  0  0  0  0  0  0  0  0  0  0
    3.7079    0.6494    0.1719 H   0  0  0  0  0  0  0  0  0  0  0  0
   -0.8226    3.0799    0.5982 H   0  0  0  0  0  0  0  0  0  0  0  0
   -2.8970    1.5734    0.2764 H   0  0  0  0  0  0  0  0  0  0  0  0
  1 12  1  0
  1  3  1  0
  1 11  1  0
  1  6  1  0
  2  4  1  0
  2 13  1  0
  2 14  1  0
  2 15  1  0
  3  4  2  0
  3  5  1  0
  4  7  1  0
  5  9  1  0
  5  8  2  0
  6 10  2  0
  6 16  1  0
  7  9  2  0
  7 20  1  0
  8 10  1  0
  8 17  1  0
  9 19  1  0
 10 18  1  0
M  END
