
     RDKit          3D

 15 15  0  0  0  0  0  0  0  0999 V2000
    2.2177   -0.1355    0.0126 C   0  0  0  0  0  0  0  0  0  0  0  0
    0.7210   -0.0356    0.0035 C   0  0  0  0  0  0  0  0  0  0  0  0
    0.0830    1.2127   -0.0908 C   0  0  0  0  0  0  0  0  0  0  0  0
   -0.0553   -1.2020    0.0900 C   0  0  0  0  0  0  0  0  0  0  0  0
   -2.0802    0.1240   -0.0116 C   0  0  0  0  0  0  0  0  0  0  0  0
   -1.3136    1.2896   -0.0981 C   0  0  0  0  0  0  0  0  0  0  0  0
   -1.4515   -1.1208    0.0824 C   0  0  0  0  0  0  0  0  0  0  0  0
    2.5557   -0.7506   -0.8478 H   0  0  0  0  0  0  0  0  0  0  0  0
    2.5537   -0.6154    0.9559 H   0  0  0  0  0  0  0  0  0  0  0  0
    2.6936    0.8655   -0.0619 H   0  0  0  0  0  0  0  0  0  0  0  0
   -3.1608    0.1854   -0.0174 H   0  0  0  0  0  0  0  0  0  0  0  0
   -1.8016    2.2530   -0.1709 H   0  0  0  0  0  0  0  0  0  0  0  0
   -2.0460   -2.0228    0.1493 H   0  0  0  0  0  0  0  0  0  0  0  0
    0.6632    2.1246   -0.1585 H   0  0  0  0  0  0  0  0  0  0  0  0
    0.4210   -2.1720    0.1633 H   0  0  0  0  0  0  0  0  0  0  0  0
  1  8  1  0
  1 10  1  0
  1  9  1  0
  1  2  1  0
  2  4  2  0
  2  3  1  0
  3 14  1  0
  3  6  2  0
  4 15  1  0
  4  7  1  0
  5  7  2  0
  5  6  1  0
  5 11  1  0
  6 12  1  0
  7 13  1  0
M  END
