
     RDKit          3D

 23 24  0  0  0  0  0  0  0  0999 V2000
    1.6685   -0.3515    1.5086 O   0  0  0  0  0  0  0  0  0  0  0  0
    2.5530   -1.1678    0.9612 O   0  0  0  0  0  0  0  0  0  0  0  0
    3.7042   -0.5318    1.0602 O   0  0  0  0  0  0  0  0  0  0  0  0
    4.0209   -0.2115   -0.1782 O   0  0  0  0  0  0  0  0  0  0  0  0
   -0.2557   -1.2335    0.3473 C   0  0  0  0  0  0  0  0  0  0  0  0
   -1.7299   -0.9563    0.0379 C   0  0  0  0  0  0  0  0  0  0  0  0
    0.7234   -0.0464    0.5093 C   0  0  0  0  0  0  0  0  0  0  0  0
   -0.7958   -1.4061   -1.0750 C   0  0  0  0  0  0  0  0  0  0  0  0
   -2.2187    0.5041   -0.0389 C   0  0  0  0  0  0  0  0  0  0  0  0
   -0.0052    1.2365    0.9176 C   0  0  0  0  0  0  0  0  0  0  0  0
   -1.1116    1.5640   -0.0804 C   0  0  0  0  0  0  0  0  0  0  0  0
   -2.4474   -1.7405    0.3609 H   0  0  0  0  0  0  0  0  0  0  0  0
   -0.0387   -2.1983    0.8545 H   0  0  0  0  0  0  0  0  0  0  0  0
    1.2442    0.1572   -0.4576 H   0  0  0  0  0  0  0  0  0  0  0  0
   -0.6895    1.6402   -1.1060 H   0  0  0  0  0  0  0  0  0  0  0  0
   -1.5495    2.5542    0.1710 H   0  0  0  0  0  0  0  0  0  0  0  0
   -0.4366    1.1258    1.9375 H   0  0  0  0  0  0  0  0  0  0  0  0
    0.7222    2.0770    0.9420 H   0  0  0  0  0  0  0  0  0  0  0  0
   -2.8478    0.6917    0.8577 H   0  0  0  0  0  0  0  0  0  0  0  0
   -2.8726    0.6215   -0.9293 H   0  0  0  0  0  0  0  0  0  0  0  0
   -0.9413   -2.4638   -1.3806 H   0  0  0  0  0  0  0  0  0  0  0  0
   -0.5246   -0.6233   -1.8144 H   0  0  0  0  0  0  0  0  0  0  0  0
    3.8285    0.7587   -0.2456 H   0  0  0  0  0  0  0  0  0  0  0  0
  1  7  1  0
  1  2  1  0
  2  3  1  0
  3  4  1  0
  4 23  1  0
  5  7  1  0
  5  8  1  0
  5  6  1  0
  5 13  1  0
  6  8  1  0
  6  9  1  0
  6 12  1  0
  7 10  1  0
  7 14  1  0
  8 22  1  0
  8 21  1  0
  9 19  1  0
  9 11  1  0
  9 20  1  0
 10 18  1  0
 10 17  1  0
 10 11  1  0
 11 16  1  0
 11 15  1  0
M  END
