
     RDKit          3D

 17 17  0  0  0  0  0  0  0  0999 V2000
   -0.1871    1.0130    0.0492 C   0  0  0  0  0  0  0  0  0  0  0  0
   -0.7818   -1.2313    0.4683 C   0  0  0  0  0  0  0  0  0  0  0  0
    2.3691    0.3852   -0.4727 C   0  0  0  0  0  0  0  0  0  0  0  0
    1.0100    0.1220    0.0852 C   0  0  0  0  0  0  0  0  0  0  0  0
   -1.2448    0.1755    0.7074 C   0  0  0  0  0  0  0  0  0  0  0  0
    0.6933   -1.0425    0.6666 C   0  0  0  0  0  0  0  0  0  0  0  0
   -2.5491    0.4638    0.8002 C   0  0  0  0  0  0  0  0  0  0  0  0
   -0.5455    1.1945   -0.9843 H   0  0  0  0  0  0  0  0  0  0  0  0
   -0.0368    1.9666    0.5713 H   0  0  0  0  0  0  0  0  0  0  0  0
   -1.2150   -1.9486    1.1746 H   0  0  0  0  0  0  0  0  0  0  0  0
   -0.9193   -1.4828   -0.5950 H   0  0  0  0  0  0  0  0  0  0  0  0
    2.5674    1.4523   -0.6347 H   0  0  0  0  0  0  0  0  0  0  0  0
    2.5810   -0.2182   -1.3836 H   0  0  0  0  0  0  0  0  0  0  0  0
    3.1056    0.0349    0.2939 H   0  0  0  0  0  0  0  0  0  0  0  0
    1.3593   -1.8949    0.8365 H   0  0  0  0  0  0  0  0  0  0  0  0
   -3.1104    0.5850   -0.1254 H   0  0  0  0  0  0  0  0  0  0  0  0
   -3.0958    0.4255    1.7360 H   0  0  0  0  0  0  0  0  0  0  0  0
  1  9  1  0
  1  4  1  0
  1  8  1  0
  1  5  1  0
  2 10  1  0
  2  5  1  0
  2  6  1  0
  2 11  1  0
  3 13  1  0
  3  4  1  0
  3 12  1  0
  3 14  1  0
  4  6  2  0
  5  7  2  3
  6 15  1  0
  7 16  1  0
  7 17  1  0
M  END
