
     RDKit          3D

 21 21  0  0  0  0  0  0  0  0999 V2000
   -0.2287   -2.1885   -0.3331 O   0  0  0  0  0  0  0  0  0  0  0  0
    3.7149    0.2953    0.9841 O   0  0  0  0  0  0  0  0  0  0  0  0
    0.2258    0.1841   -0.2513 C   0  0  0  0  0  0  0  0  0  0  0  0
   -0.7439   -0.9647    0.0022 C   0  0  0  0  0  0  0  0  0  0  0  0
   -0.6892    1.3647    0.0509 C   0  0  0  0  0  0  0  0  0  0  0  0
   -1.8942   -0.5075   -0.8747 C   0  0  0  0  0  0  0  0  0  0  0  0
   -2.0962    0.8872   -0.2868 C   0  0  0  0  0  0  0  0  0  0  0  0
    1.3921    0.1315    0.6504 C   0  0  0  0  0  0  0  0  0  0  0  0
    2.6113    0.1924    0.1345 C   0  0  0  0  0  0  0  0  0  0  0  0
    0.5064    0.1149   -1.3138 H   0  0  0  0  0  0  0  0  0  0  0  0
   -1.1143   -0.8798    1.0407 H   0  0  0  0  0  0  0  0  0  0  0  0
   -2.7898   -1.1368   -0.7813 H   0  0  0  0  0  0  0  0  0  0  0  0
   -1.5354   -0.3863   -1.9165 H   0  0  0  0  0  0  0  0  0  0  0  0
   -2.6079    1.5454   -1.0006 H   0  0  0  0  0  0  0  0  0  0  0  0
   -2.7245    0.7697    0.6240 H   0  0  0  0  0  0  0  0  0  0  0  0
   -0.4049    2.2683   -0.5038 H   0  0  0  0  0  0  0  0  0  0  0  0
   -0.5622    1.5875    1.1206 H   0  0  0  0  0  0  0  0  0  0  0  0
    1.2406   -0.3381    1.6181 H   0  0  0  0  0  0  0  0  0  0  0  0
    2.8314   -0.1201   -0.8874 H   0  0  0  0  0  0  0  0  0  0  0  0
    0.6649   -2.2456    0.1164 H   0  0  0  0  0  0  0  0  0  0  0  0
    4.2039   -0.5735    1.1787 H   0  0  0  0  0  0  0  0  0  0  0  0
  1 20  1  0
  1  4  1  0
  2  9  1  0
  2 21  1  0
  3 10  1  0
  3  5  1  0
  3  8  1  0
  3  4  1  0
  4  6  1  0
  4 11  1  0
  5  7  1  0
  5 17  1  0
  5 16  1  0
  6 13  1  0
  6  7  1  0
  6 12  1  0
  7 14  1  0
  7 15  1  0
  8  9  2  3
  8 18  1  0
  9 19  1  0
M  END
