
     RDKit          3D

 20 20  0  0  0  0  0  0  0  0999 V2000
   -0.6389   -1.0408    0.2312 C   0  0  0  0  0  0  0  0  0  0  0  0
   -0.4020    0.4338    0.2694 C   0  0  0  0  0  0  0  0  0  0  0  0
   -2.0384   -1.2702    0.7071 C   0  0  0  0  0  0  0  0  0  0  0  0
   -1.4622    1.3313   -0.2021 C   0  0  0  0  0  0  0  0  0  0  0  0
    0.8600    0.8556    0.1882 C   0  0  0  0  0  0  0  0  0  0  0  0
   -2.9709   -0.5143    0.1263 C   0  0  0  0  0  0  0  0  0  0  0  0
   -2.6227    0.7582   -0.5153 C   0  0  0  0  0  0  0  0  0  0  0  0
    1.7301    0.1593   -0.7223 C   0  0  0  0  0  0  0  0  0  0  0  0
    4.2181   -0.2103   -0.0146 C   0  0  0  0  0  0  0  0  0  0  0  0
    2.9465   -0.0414   -0.2993 C   0  0  0  0  0  0  0  0  0  0  0  0
    0.0985   -1.5425    0.8724 H   0  0  0  0  0  0  0  0  0  0  0  0
   -0.5756   -1.4068   -0.8242 H   0  0  0  0  0  0  0  0  0  0  0  0
   -2.1589   -1.6620    1.7186 H   0  0  0  0  0  0  0  0  0  0  0  0
    1.0378    1.8848    0.4886 H   0  0  0  0  0  0  0  0  0  0  0  0
   -1.3113    2.4041   -0.2908 H   0  0  0  0  0  0  0  0  0  0  0  0
   -3.3453    1.2865   -1.1106 H   0  0  0  0  0  0  0  0  0  0  0  0
   -4.0079   -0.7366    0.3790 H   0  0  0  0  0  0  0  0  0  0  0  0
    1.4522   -0.4148   -1.5765 H   0  0  0  0  0  0  0  0  0  0  0  0
    4.3683   -0.9228    0.7857 H   0  0  0  0  0  0  0  0  0  0  0  0
    4.8228    0.6489   -0.2108 H   0  0  0  0  0  0  0  0  0  0  0  0
  1  2  1  0
  1  3  1  0
  1 12  1  0
  1 11  1  0
  2  5  2  3
  2  4  1  0
  3 13  1  0
  3  6  2  0
  4 15  1  0
  4  7  2  0
  5  8  1  0
  5 14  1  0
  6 17  1  0
  6  7  1  0
  7 16  1  0
  8 10  2  3
  8 18  1  0
  9 10  2  3
  9 19  1  0
  9 20  1  0
M  END
