
     RDKit          3D

 20 20  0  0  0  0  0  0  0  0999 V2000
    0.0107    0.3204   -0.5120 C   0  0  0  0  0  0  0  0  0  0  0  0
    3.5433   -1.3900    0.4796 C   0  0  0  0  0  0  0  0  0  0  0  0
   -1.2841   -0.3998   -0.3192 C   0  0  0  0  0  0  0  0  0  0  0  0
   -0.0387    1.5173    0.3731 C   0  0  0  0  0  0  0  0  0  0  0  0
   -2.5021    0.3976   -0.5098 C   0  0  0  0  0  0  0  0  0  0  0  0
   -1.1561    2.2459    0.3456 C   0  0  0  0  0  0  0  0  0  0  0  0
   -2.3585    1.7074   -0.3033 C   0  0  0  0  0  0  0  0  0  0  0  0
   -1.3265   -1.6971   -0.0524 C   0  0  0  0  0  0  0  0  0  0  0  0
    1.0760   -0.6009   -0.1356 C   0  0  0  0  0  0  0  0  0  0  0  0
    2.1265   -1.1280    0.1676 C   0  0  0  0  0  0  0  0  0  0  0  0
    0.1332    0.6833   -1.5469 H   0  0  0  0  0  0  0  0  0  0  0  0
    3.7019   -2.4808    0.3661 H   0  0  0  0  0  0  0  0  0  0  0  0
    3.7796   -1.0330    1.4942 H   0  0  0  0  0  0  0  0  0  0  0  0
    4.2185   -0.8779   -0.2502 H   0  0  0  0  0  0  0  0  0  0  0  0
    0.5777    1.6246    1.2613 H   0  0  0  0  0  0  0  0  0  0  0  0
   -1.0595    3.3119    0.5605 H   0  0  0  0  0  0  0  0  0  0  0  0
   -3.4690   -0.0673   -0.3150 H   0  0  0  0  0  0  0  0  0  0  0  0
   -3.1869    2.3534   -0.5653 H   0  0  0  0  0  0  0  0  0  0  0  0
   -0.5790   -2.3913   -0.4399 H   0  0  0  0  0  0  0  0  0  0  0  0
   -2.2071   -2.0956    0.4555 H   0  0  0  0  0  0  0  0  0  0  0  0
  1  4  1  0
  1 11  1  0
  1  3  1  0
  1  9  1  0
  2 12  1  0
  2 10  1  0
  2 13  1  0
  2 14  1  0
  3  8  2  3
  3  5  1  0
  4  6  2  0
  4 15  1  0
  5  7  2  0
  5 17  1  0
  6 16  1  0
  6  7  1  0
  7 18  1  0
  8 19  1  0
  8 20  1  0
  9 10  3  0
M  END
