
     RDKit          3D

 21 21  0  0  0  0  0  0  0  0999 V2000
    2.3332   -1.1991    0.0885 O   0  0  0  0  0  0  0  0  0  0  0  0
    2.2743    1.4813   -0.1753 O   0  0  0  0  0  0  0  0  0  0  0  0
    1.1781   -0.5374   -0.3568 C   0  0  0  0  0  0  0  0  0  0  0  0
    0.0201   -1.4298   -0.0606 C   0  0  0  0  0  0  0  0  0  0  0  0
    1.1464    0.7985    0.3140 C   0  0  0  0  0  0  0  0  0  0  0  0
   -1.3024   -0.9199   -0.5488 C   0  0  0  0  0  0  0  0  0  0  0  0
   -1.9265    0.0683    0.4011 C   0  0  0  0  0  0  0  0  0  0  0  0
   -0.0298    1.6269   -0.0302 C   0  0  0  0  0  0  0  0  0  0  0  0
   -1.3333    1.4069    0.1930 C   0  0  0  0  0  0  0  0  0  0  0  0
    1.2265   -0.3757   -1.4443 H   0  0  0  0  0  0  0  0  0  0  0  0
   -1.2154   -0.5227   -1.5826 H   0  0  0  0  0  0  0  0  0  0  0  0
   -1.9920   -1.7978   -0.6351 H   0  0  0  0  0  0  0  0  0  0  0  0
   -0.0711   -1.7136    1.0069 H   0  0  0  0  0  0  0  0  0  0  0  0
    0.2145   -2.3879   -0.6070 H   0  0  0  0  0  0  0  0  0  0  0  0
    1.2909    0.7484    1.4188 H   0  0  0  0  0  0  0  0  0  0  0  0
   -3.0035    0.1322    0.1598 H   0  0  0  0  0  0  0  0  0  0  0  0
   -1.7461   -0.2937    1.4326 H   0  0  0  0  0  0  0  0  0  0  0  0
   -1.9715    2.1948   -0.2125 H   0  0  0  0  0  0  0  0  0  0  0  0
    0.1766    2.7015    0.0326 H   0  0  0  0  0  0  0  0  0  0  0  0
    2.1592   -2.1728    0.1787 H   0  0  0  0  0  0  0  0  0  0  0  0
    2.5721    2.1916    0.4274 H   0  0  0  0  0  0  0  0  0  0  0  0
  1  3  1  0
  1 20  1  0
  2 21  1  0
  2  5  1  0
  3  5  1  0
  3 10  1  0
  3  4  1  0
  4 14  1  0
  4  6  1  0
  4 13  1  0
  5 15  1  0
  5  8  1  0
  6 11  1  0
  6  7  1  0
  6 12  1  0
  7 16  1  0
  7 17  1  0
  7  9  1  0
  8 19  1  0
  8  9  2  0
  9 18  1  0
M  END
